version 2
run nodebug-0-20160707-10:14:46-26241
attr configname nodebug
attr datetime 20160707-10:14:46
attr experiment nodebug
attr inifile omnetpp.ini
attr iterationvars ""
attr iterationvars2 $repetition=0
attr measurement ""
attr network RSUExampleScenario
attr processid 26241
attr repetition 0
attr replication #0
attr resultdir results
attr runnumber 0
attr seedset 0

scalar RSUExampleScenario.node[0].appl 	#receivedMessages 	0
scalar RSUExampleScenario.node[0].nic.phy80211p 	busyTime 	5.2935187885986e-06
scalar RSUExampleScenario.node[0].nic.mac1609_4 	ReceivedUnicastPackets 	0
scalar RSUExampleScenario.node[0].nic.mac1609_4 	ReceivedBroadcasts 	13
scalar RSUExampleScenario.node[0].nic.mac1609_4 	SentPackets 	1
scalar RSUExampleScenario.node[0].nic.mac1609_4 	SNIRLostPackets 	0
scalar RSUExampleScenario.node[0].nic.mac1609_4 	RXTXLostPackets 	0
scalar RSUExampleScenario.node[0].nic.mac1609_4 	TotalLostPackets 	0
scalar RSUExampleScenario.node[0].nic.mac1609_4 	DroppedPacketsInMac 	0
scalar RSUExampleScenario.node[0].nic.mac1609_4 	TooLittleTime 	0
scalar RSUExampleScenario.node[0].nic.mac1609_4 	TimesIntoBackoff 	1
scalar RSUExampleScenario.node[0].nic.mac1609_4 	SlotsBackoff 	2
scalar RSUExampleScenario.node[0].nic.mac1609_4 	NumInternalContention 	0
scalar RSUExampleScenario.node[0].nic.mac1609_4 	totalBusyTime 	0.001680999986
scalar RSUExampleScenario.node[0].veinsmobility 	startTime 	0.1
scalar RSUExampleScenario.node[0].veinsmobility 	totalTime 	294.6
scalar RSUExampleScenario.node[0].veinsmobility 	stopTime 	294.8
scalar RSUExampleScenario.node[0].veinsmobility 	minSpeed 	0
scalar RSUExampleScenario.node[0].veinsmobility 	maxSpeed 	13.999841648745
scalar RSUExampleScenario.node[0].veinsmobility 	totalDistance 	3409.587324678
scalar RSUExampleScenario.node[0].veinsmobility 	totalCO2Emission 	733.91330158527
scalar RSUExampleScenario.node[1].appl 	#receivedMessages 	0
scalar RSUExampleScenario.node[1].nic.phy80211p 	busyTime 	5.2881355491525e-06
scalar RSUExampleScenario.node[1].nic.mac1609_4 	ReceivedUnicastPackets 	0
scalar RSUExampleScenario.node[1].nic.mac1609_4 	ReceivedBroadcasts 	13
scalar RSUExampleScenario.node[1].nic.mac1609_4 	SentPackets 	1
scalar RSUExampleScenario.node[1].nic.mac1609_4 	SNIRLostPackets 	0
scalar RSUExampleScenario.node[1].nic.mac1609_4 	RXTXLostPackets 	0
scalar RSUExampleScenario.node[1].nic.mac1609_4 	TotalLostPackets 	0
scalar RSUExampleScenario.node[1].nic.mac1609_4 	DroppedPacketsInMac 	0
scalar RSUExampleScenario.node[1].nic.mac1609_4 	TooLittleTime 	0
scalar RSUExampleScenario.node[1].nic.mac1609_4 	TimesIntoBackoff 	1
scalar RSUExampleScenario.node[1].nic.mac1609_4 	SlotsBackoff 	4
scalar RSUExampleScenario.node[1].nic.mac1609_4 	NumInternalContention 	0
scalar RSUExampleScenario.node[1].nic.mac1609_4 	totalBusyTime 	0.001680999986
scalar RSUExampleScenario.node[1].veinsmobility 	startTime 	3.1
scalar RSUExampleScenario.node[1].veinsmobility 	totalTime 	294.9
scalar RSUExampleScenario.node[1].veinsmobility 	stopTime 	298.1
scalar RSUExampleScenario.node[1].veinsmobility 	minSpeed 	1.0723063509915e-10
scalar RSUExampleScenario.node[1].veinsmobility 	maxSpeed 	13.999952244477
scalar RSUExampleScenario.node[1].veinsmobility 	totalDistance 	3418.1783167447
scalar RSUExampleScenario.node[1].veinsmobility 	totalCO2Emission 	728.47835711804
scalar RSUExampleScenario.node[2].appl 	#receivedMessages 	0
scalar RSUExampleScenario.node[2].nic.phy80211p 	busyTime 	5.2863435682819e-06
scalar RSUExampleScenario.node[2].nic.mac1609_4 	ReceivedUnicastPackets 	0
scalar RSUExampleScenario.node[2].nic.mac1609_4 	ReceivedBroadcasts 	13
scalar RSUExampleScenario.node[2].nic.mac1609_4 	SentPackets 	1
scalar RSUExampleScenario.node[2].nic.mac1609_4 	SNIRLostPackets 	0
scalar RSUExampleScenario.node[2].nic.mac1609_4 	RXTXLostPackets 	0
scalar RSUExampleScenario.node[2].nic.mac1609_4 	TotalLostPackets 	0
scalar RSUExampleScenario.node[2].nic.mac1609_4 	DroppedPacketsInMac 	0
scalar RSUExampleScenario.node[2].nic.mac1609_4 	TooLittleTime 	0
scalar RSUExampleScenario.node[2].nic.mac1609_4 	TimesIntoBackoff 	2
scalar RSUExampleScenario.node[2].nic.mac1609_4 	SlotsBackoff 	6
scalar RSUExampleScenario.node[2].nic.mac1609_4 	NumInternalContention 	0
scalar RSUExampleScenario.node[2].nic.mac1609_4 	totalBusyTime 	0.001680999986
scalar RSUExampleScenario.node[2].veinsmobility 	startTime 	6.1
scalar RSUExampleScenario.node[2].veinsmobility 	totalTime 	295
scalar RSUExampleScenario.node[2].veinsmobility 	stopTime 	301.2
scalar RSUExampleScenario.node[2].veinsmobility 	minSpeed 	4.5161738638596e-09
scalar RSUExampleScenario.node[2].veinsmobility 	maxSpeed 	13.999978797489
scalar RSUExampleScenario.node[2].veinsmobility 	totalDistance 	3409.8136754283
scalar RSUExampleScenario.node[2].veinsmobility 	totalCO2Emission 	724.98602022422
scalar RSUExampleScenario.node[3].appl 	#receivedMessages 	0
scalar RSUExampleScenario.node[3].nic.phy80211p 	busyTime 	5.2827632475449e-06
scalar RSUExampleScenario.node[3].nic.mac1609_4 	ReceivedUnicastPackets 	0
scalar RSUExampleScenario.node[3].nic.mac1609_4 	ReceivedBroadcasts 	13
scalar RSUExampleScenario.node[3].nic.mac1609_4 	SentPackets 	1
scalar RSUExampleScenario.node[3].nic.mac1609_4 	SNIRLostPackets 	0
scalar RSUExampleScenario.node[3].nic.mac1609_4 	RXTXLostPackets 	0
scalar RSUExampleScenario.node[3].nic.mac1609_4 	TotalLostPackets 	0
scalar RSUExampleScenario.node[3].nic.mac1609_4 	DroppedPacketsInMac 	0
scalar RSUExampleScenario.node[3].nic.mac1609_4 	TooLittleTime 	0
scalar RSUExampleScenario.node[3].nic.mac1609_4 	TimesIntoBackoff 	1
scalar RSUExampleScenario.node[3].nic.mac1609_4 	SlotsBackoff 	4
scalar RSUExampleScenario.node[3].nic.mac1609_4 	NumInternalContention 	0
scalar RSUExampleScenario.node[3].nic.mac1609_4 	totalBusyTime 	0.001680999986
scalar RSUExampleScenario.node[3].veinsmobility 	startTime 	9.1
scalar RSUExampleScenario.node[3].veinsmobility 	totalTime 	295.2
scalar RSUExampleScenario.node[3].veinsmobility 	stopTime 	304.4
scalar RSUExampleScenario.node[3].veinsmobility 	minSpeed 	1.0715076645481e-07
scalar RSUExampleScenario.node[3].veinsmobility 	maxSpeed 	13.999963194737
scalar RSUExampleScenario.node[3].veinsmobility 	totalDistance 	3414.0132606692
scalar RSUExampleScenario.node[3].veinsmobility 	totalCO2Emission 	719.62649403943
scalar RSUExampleScenario.node[4].appl 	#receivedMessages 	0
scalar RSUExampleScenario.node[4].nic.phy80211p 	busyTime 	5.6833558389716e-06
scalar RSUExampleScenario.node[4].nic.mac1609_4 	ReceivedUnicastPackets 	0
scalar RSUExampleScenario.node[4].nic.mac1609_4 	ReceivedBroadcasts 	14
scalar RSUExampleScenario.node[4].nic.mac1609_4 	SentPackets 	1
scalar RSUExampleScenario.node[4].nic.mac1609_4 	SNIRLostPackets 	0
scalar RSUExampleScenario.node[4].nic.mac1609_4 	RXTXLostPackets 	0
scalar RSUExampleScenario.node[4].nic.mac1609_4 	TotalLostPackets 	0
scalar RSUExampleScenario.node[4].nic.mac1609_4 	DroppedPacketsInMac 	0
scalar RSUExampleScenario.node[4].nic.mac1609_4 	TooLittleTime 	0
scalar RSUExampleScenario.node[4].nic.mac1609_4 	TimesIntoBackoff 	2
scalar RSUExampleScenario.node[4].nic.mac1609_4 	SlotsBackoff 	5
scalar RSUExampleScenario.node[4].nic.mac1609_4 	NumInternalContention 	0
scalar RSUExampleScenario.node[4].nic.mac1609_4 	totalBusyTime 	0.001800999985
scalar RSUExampleScenario.node[4].veinsmobility 	startTime 	12.1
scalar RSUExampleScenario.node[4].veinsmobility 	totalTime 	295.5
scalar RSUExampleScenario.node[4].veinsmobility 	stopTime 	307.7
scalar RSUExampleScenario.node[4].veinsmobility 	minSpeed 	1.6734956415936e-06
scalar RSUExampleScenario.node[4].veinsmobility 	maxSpeed 	13.999990419396
scalar RSUExampleScenario.node[4].veinsmobility 	totalDistance 	3409.380606541
scalar RSUExampleScenario.node[4].veinsmobility 	totalCO2Emission 	725.22008672572
scalar RSUExampleScenario.node[5].appl 	#receivedMessages 	0
scalar RSUExampleScenario.node[5].nic.phy80211p 	busyTime 	6.4864864324324e-06
scalar RSUExampleScenario.node[5].nic.mac1609_4 	ReceivedUnicastPackets 	0
scalar RSUExampleScenario.node[5].nic.mac1609_4 	ReceivedBroadcasts 	16
scalar RSUExampleScenario.node[5].nic.mac1609_4 	SentPackets 	1
scalar RSUExampleScenario.node[5].nic.mac1609_4 	SNIRLostPackets 	0
scalar RSUExampleScenario.node[5].nic.mac1609_4 	RXTXLostPackets 	0
scalar RSUExampleScenario.node[5].nic.mac1609_4 	TotalLostPackets 	0
scalar RSUExampleScenario.node[5].nic.mac1609_4 	DroppedPacketsInMac 	0
scalar RSUExampleScenario.node[5].nic.mac1609_4 	TooLittleTime 	0
scalar RSUExampleScenario.node[5].nic.mac1609_4 	TimesIntoBackoff 	1
scalar RSUExampleScenario.node[5].nic.mac1609_4 	SlotsBackoff 	6
scalar RSUExampleScenario.node[5].nic.mac1609_4 	NumInternalContention 	0
scalar RSUExampleScenario.node[5].nic.mac1609_4 	totalBusyTime 	0.002040999983
scalar RSUExampleScenario.node[5].veinsmobility 	startTime 	15.1
scalar RSUExampleScenario.node[5].veinsmobility 	totalTime 	295.9
scalar RSUExampleScenario.node[5].veinsmobility 	stopTime 	311.1
scalar RSUExampleScenario.node[5].veinsmobility 	minSpeed 	2.211255019457e-05
scalar RSUExampleScenario.node[5].veinsmobility 	maxSpeed 	13.99985280392
scalar RSUExampleScenario.node[5].veinsmobility 	totalDistance 	3418.2505608528
scalar RSUExampleScenario.node[5].veinsmobility 	totalCO2Emission 	719.15932361563
scalar RSUExampleScenario.node[6].appl 	#receivedMessages 	0
scalar RSUExampleScenario.node[6].nic.phy80211p 	busyTime 	7.2825353405259e-06
scalar RSUExampleScenario.node[6].nic.mac1609_4 	ReceivedUnicastPackets 	0
scalar RSUExampleScenario.node[6].nic.mac1609_4 	ReceivedBroadcasts 	14
scalar RSUExampleScenario.node[6].nic.mac1609_4 	SentPackets 	1
scalar RSUExampleScenario.node[6].nic.mac1609_4 	SNIRLostPackets 	4
scalar RSUExampleScenario.node[6].nic.mac1609_4 	RXTXLostPackets 	0
scalar RSUExampleScenario.node[6].nic.mac1609_4 	TotalLostPackets 	4
scalar RSUExampleScenario.node[6].nic.mac1609_4 	DroppedPacketsInMac 	0
scalar RSUExampleScenario.node[6].nic.mac1609_4 	TooLittleTime 	0
scalar RSUExampleScenario.node[6].nic.mac1609_4 	TimesIntoBackoff 	1
scalar RSUExampleScenario.node[6].nic.mac1609_4 	SlotsBackoff 	3
scalar RSUExampleScenario.node[6].nic.mac1609_4 	NumInternalContention 	0
scalar RSUExampleScenario.node[6].nic.mac1609_4 	totalBusyTime 	0.002040999983
scalar RSUExampleScenario.node[6].veinsmobility 	startTime 	18.1
scalar RSUExampleScenario.node[6].veinsmobility 	totalTime 	296.5
scalar RSUExampleScenario.node[6].veinsmobility 	stopTime 	314.7
scalar RSUExampleScenario.node[6].veinsmobility 	minSpeed 	0.00020572921230529
scalar RSUExampleScenario.node[6].veinsmobility 	maxSpeed 	13.999949261174
scalar RSUExampleScenario.node[6].veinsmobility 	totalDistance 	3409.9277104364
scalar RSUExampleScenario.node[6].veinsmobility 	totalCO2Emission 	721.03498521089
scalar RSUExampleScenario.node[7].appl 	#receivedMessages 	0
scalar RSUExampleScenario.node[7].nic.phy80211p 	busyTime 	7.671601551144e-06
scalar RSUExampleScenario.node[7].nic.mac1609_4 	ReceivedUnicastPackets 	0
scalar RSUExampleScenario.node[7].nic.mac1609_4 	ReceivedBroadcasts 	15
scalar RSUExampleScenario.node[7].nic.mac1609_4 	SentPackets 	1
scalar RSUExampleScenario.node[7].nic.mac1609_4 	SNIRLostPackets 	4
scalar RSUExampleScenario.node[7].nic.mac1609_4 	RXTXLostPackets 	0
scalar RSUExampleScenario.node[7].nic.mac1609_4 	TotalLostPackets 	4
scalar RSUExampleScenario.node[7].nic.mac1609_4 	DroppedPacketsInMac 	0
scalar RSUExampleScenario.node[7].nic.mac1609_4 	TooLittleTime 	0
scalar RSUExampleScenario.node[7].nic.mac1609_4 	TimesIntoBackoff 	1
scalar RSUExampleScenario.node[7].nic.mac1609_4 	SlotsBackoff 	6
scalar RSUExampleScenario.node[7].nic.mac1609_4 	NumInternalContention 	0
scalar RSUExampleScenario.node[7].nic.mac1609_4 	totalBusyTime 	0.002160999982
scalar RSUExampleScenario.node[7].veinsmobility 	startTime 	21.1
scalar RSUExampleScenario.node[7].veinsmobility 	totalTime 	297.1
scalar RSUExampleScenario.node[7].veinsmobility 	stopTime 	318.3
scalar RSUExampleScenario.node[7].veinsmobility 	minSpeed 	0.0015616401426036
scalar RSUExampleScenario.node[7].veinsmobility 	maxSpeed 	13.999814914761
scalar RSUExampleScenario.node[7].veinsmobility 	totalDistance 	3417.3784516971
scalar RSUExampleScenario.node[7].veinsmobility 	totalCO2Emission 	723.22612377907
scalar RSUExampleScenario.node[8].appl 	#receivedMessages 	0
scalar RSUExampleScenario.node[8].nic.phy80211p 	busyTime 	8.86501e-06
scalar RSUExampleScenario.node[8].nic.mac1609_4 	ReceivedUnicastPackets 	0
scalar RSUExampleScenario.node[8].nic.mac1609_4 	ReceivedBroadcasts 	14
scalar RSUExampleScenario.node[8].nic.mac1609_4 	SentPackets 	1
scalar RSUExampleScenario.node[8].nic.mac1609_4 	SNIRLostPackets 	8
scalar RSUExampleScenario.node[8].nic.mac1609_4 	RXTXLostPackets 	0
scalar RSUExampleScenario.node[8].nic.mac1609_4 	TotalLostPackets 	8
scalar RSUExampleScenario.node[8].nic.mac1609_4 	DroppedPacketsInMac 	0
scalar RSUExampleScenario.node[8].nic.mac1609_4 	TooLittleTime 	0
scalar RSUExampleScenario.node[8].nic.mac1609_4 	TimesIntoBackoff 	2
scalar RSUExampleScenario.node[8].nic.mac1609_4 	SlotsBackoff 	5
scalar RSUExampleScenario.node[8].nic.mac1609_4 	NumInternalContention 	0
scalar RSUExampleScenario.node[8].nic.mac1609_4 	totalBusyTime 	0.002280999981
scalar RSUExampleScenario.node[8].veinsmobility 	startTime 	24.1
scalar RSUExampleScenario.node[8].veinsmobility 	totalTime 	297.7
scalar RSUExampleScenario.node[8].veinsmobility 	stopTime 	321.9
scalar RSUExampleScenario.node[8].veinsmobility 	minSpeed 	0.008407760997746
scalar RSUExampleScenario.node[8].veinsmobility 	maxSpeed 	13.999882012645
scalar RSUExampleScenario.node[8].veinsmobility 	totalDistance 	3409.5712109151
scalar RSUExampleScenario.node[8].veinsmobility 	totalCO2Emission 	725.63369032528
scalar RSUExampleScenario.node[9].appl 	#receivedMessages 	0
scalar RSUExampleScenario.node[9].nic.phy80211p 	busyTime 	8.8471849128686e-06
scalar RSUExampleScenario.node[9].nic.mac1609_4 	ReceivedUnicastPackets 	0
scalar RSUExampleScenario.node[9].nic.mac1609_4 	ReceivedBroadcasts 	14
scalar RSUExampleScenario.node[9].nic.mac1609_4 	SentPackets 	1
scalar RSUExampleScenario.node[9].nic.mac1609_4 	SNIRLostPackets 	8
scalar RSUExampleScenario.node[9].nic.mac1609_4 	RXTXLostPackets 	0
scalar RSUExampleScenario.node[9].nic.mac1609_4 	TotalLostPackets 	8
scalar RSUExampleScenario.node[9].nic.mac1609_4 	DroppedPacketsInMac 	0
scalar RSUExampleScenario.node[9].nic.mac1609_4 	TooLittleTime 	0
scalar RSUExampleScenario.node[9].nic.mac1609_4 	TimesIntoBackoff 	1
scalar RSUExampleScenario.node[9].nic.mac1609_4 	SlotsBackoff 	5
scalar RSUExampleScenario.node[9].nic.mac1609_4 	NumInternalContention 	0
scalar RSUExampleScenario.node[9].nic.mac1609_4 	totalBusyTime 	0.002280999981
scalar RSUExampleScenario.node[9].veinsmobility 	startTime 	27.1
scalar RSUExampleScenario.node[9].veinsmobility 	totalTime 	298.3
scalar RSUExampleScenario.node[9].veinsmobility 	stopTime 	325.5
scalar RSUExampleScenario.node[9].veinsmobility 	minSpeed 	0.038765736514343
scalar RSUExampleScenario.node[9].veinsmobility 	maxSpeed 	13.99997135665
scalar RSUExampleScenario.node[9].veinsmobility 	totalDistance 	3413.5452535676
scalar RSUExampleScenario.node[9].veinsmobility 	totalCO2Emission 	723.37750555491
scalar RSUExampleScenario.node[10].appl 	#receivedMessages 	0
scalar RSUExampleScenario.node[10].nic.phy80211p 	busyTime 	1.0861548685887e-05
scalar RSUExampleScenario.node[10].nic.mac1609_4 	ReceivedUnicastPackets 	0
scalar RSUExampleScenario.node[10].nic.mac1609_4 	ReceivedBroadcasts 	19
scalar RSUExampleScenario.node[10].nic.mac1609_4 	SentPackets 	1
scalar RSUExampleScenario.node[10].nic.mac1609_4 	SNIRLostPackets 	8
scalar RSUExampleScenario.node[10].nic.mac1609_4 	RXTXLostPackets 	0
scalar RSUExampleScenario.node[10].nic.mac1609_4 	TotalLostPackets 	8
scalar RSUExampleScenario.node[10].nic.mac1609_4 	DroppedPacketsInMac 	0
scalar RSUExampleScenario.node[10].nic.mac1609_4 	TooLittleTime 	0
scalar RSUExampleScenario.node[10].nic.mac1609_4 	TimesIntoBackoff 	2
scalar RSUExampleScenario.node[10].nic.mac1609_4 	SlotsBackoff 	8
scalar RSUExampleScenario.node[10].nic.mac1609_4 	NumInternalContention 	0
scalar RSUExampleScenario.node[10].nic.mac1609_4 	totalBusyTime 	0.002880999976
scalar RSUExampleScenario.node[10].veinsmobility 	startTime 	30.1
scalar RSUExampleScenario.node[10].veinsmobility 	totalTime 	298.3
scalar RSUExampleScenario.node[10].veinsmobility 	stopTime 	328.4
scalar RSUExampleScenario.node[10].veinsmobility 	minSpeed 	0
scalar RSUExampleScenario.node[10].veinsmobility 	maxSpeed 	13.999854134803
scalar RSUExampleScenario.node[10].veinsmobility 	totalDistance 	3395.1999205514
scalar RSUExampleScenario.node[10].veinsmobility 	totalCO2Emission 	732.38526167267
scalar RSUExampleScenario.node[100].appl 	#receivedMessages 	0
scalar RSUExampleScenario.node[100].nic.phy80211p 	busyTime 	0
scalar RSUExampleScenario.node[100].nic.mac1609_4 	ReceivedUnicastPackets 	0
scalar RSUExampleScenario.node[100].nic.mac1609_4 	ReceivedBroadcasts 	0
scalar RSUExampleScenario.node[100].nic.mac1609_4 	SentPackets 	0
scalar RSUExampleScenario.node[100].nic.mac1609_4 	SNIRLostPackets 	0
scalar RSUExampleScenario.node[100].nic.mac1609_4 	RXTXLostPackets 	0
scalar RSUExampleScenario.node[100].nic.mac1609_4 	TotalLostPackets 	0
scalar RSUExampleScenario.node[100].nic.mac1609_4 	DroppedPacketsInMac 	0
scalar RSUExampleScenario.node[100].nic.mac1609_4 	TooLittleTime 	0
scalar RSUExampleScenario.node[100].nic.mac1609_4 	TimesIntoBackoff 	0
scalar RSUExampleScenario.node[100].nic.mac1609_4 	SlotsBackoff 	0
scalar RSUExampleScenario.node[100].nic.mac1609_4 	NumInternalContention 	0
scalar RSUExampleScenario.node[100].nic.mac1609_4 	totalBusyTime 	0
scalar RSUExampleScenario.node[100].veinsmobility 	startTime 	300.1
scalar RSUExampleScenario.node[100].veinsmobility 	totalTime 	28.3
scalar RSUExampleScenario.node[100].veinsmobility 	stopTime 	328.4
scalar RSUExampleScenario.node[100].veinsmobility 	minSpeed 	0.25226885866583
scalar RSUExampleScenario.node[100].veinsmobility 	maxSpeed 	13.888297497623
scalar RSUExampleScenario.node[100].veinsmobility 	totalDistance 	243.45929563078
scalar RSUExampleScenario.node[100].veinsmobility 	totalCO2Emission 	96.116084579099
scalar RSUExampleScenario.node[101].appl 	#receivedMessages 	0
scalar RSUExampleScenario.node[101].nic.phy80211p 	busyTime 	0
scalar RSUExampleScenario.node[101].nic.mac1609_4 	ReceivedUnicastPackets 	0
scalar RSUExampleScenario.node[101].nic.mac1609_4 	ReceivedBroadcasts 	0
scalar RSUExampleScenario.node[101].nic.mac1609_4 	SentPackets 	0
scalar RSUExampleScenario.node[101].nic.mac1609_4 	SNIRLostPackets 	0
scalar RSUExampleScenario.node[101].nic.mac1609_4 	RXTXLostPackets 	0
scalar RSUExampleScenario.node[101].nic.mac1609_4 	TotalLostPackets 	0
scalar RSUExampleScenario.node[101].nic.mac1609_4 	DroppedPacketsInMac 	0
scalar RSUExampleScenario.node[101].nic.mac1609_4 	TooLittleTime 	0
scalar RSUExampleScenario.node[101].nic.mac1609_4 	TimesIntoBackoff 	0
scalar RSUExampleScenario.node[101].nic.mac1609_4 	SlotsBackoff 	0
scalar RSUExampleScenario.node[101].nic.mac1609_4 	NumInternalContention 	0
scalar RSUExampleScenario.node[101].nic.mac1609_4 	totalBusyTime 	0
scalar RSUExampleScenario.node[101].veinsmobility 	startTime 	303.1
scalar RSUExampleScenario.node[101].veinsmobility 	totalTime 	25.3
scalar RSUExampleScenario.node[101].veinsmobility 	stopTime 	328.4
scalar RSUExampleScenario.node[101].veinsmobility 	minSpeed 	0.25461252033734
scalar RSUExampleScenario.node[101].veinsmobility 	maxSpeed 	13.887954018179
scalar RSUExampleScenario.node[101].veinsmobility 	totalDistance 	223.93379020625
scalar RSUExampleScenario.node[101].veinsmobility 	totalCO2Emission 	81.061572959193
scalar RSUExampleScenario.node[102].appl 	#receivedMessages 	0
scalar RSUExampleScenario.node[102].nic.phy80211p 	busyTime 	0
scalar RSUExampleScenario.node[102].nic.mac1609_4 	ReceivedUnicastPackets 	0
scalar RSUExampleScenario.node[102].nic.mac1609_4 	ReceivedBroadcasts 	0
scalar RSUExampleScenario.node[102].nic.mac1609_4 	SentPackets 	0
scalar RSUExampleScenario.node[102].nic.mac1609_4 	SNIRLostPackets 	0
scalar RSUExampleScenario.node[102].nic.mac1609_4 	RXTXLostPackets 	0
scalar RSUExampleScenario.node[102].nic.mac1609_4 	TotalLostPackets 	0
scalar RSUExampleScenario.node[102].nic.mac1609_4 	DroppedPacketsInMac 	0
scalar RSUExampleScenario.node[102].nic.mac1609_4 	TooLittleTime 	0
scalar RSUExampleScenario.node[102].nic.mac1609_4 	TimesIntoBackoff 	0
scalar RSUExampleScenario.node[102].nic.mac1609_4 	SlotsBackoff 	0
scalar RSUExampleScenario.node[102].nic.mac1609_4 	NumInternalContention 	0
scalar RSUExampleScenario.node[102].nic.mac1609_4 	totalBusyTime 	0
scalar RSUExampleScenario.node[102].veinsmobility 	startTime 	306.1
scalar RSUExampleScenario.node[102].veinsmobility 	totalTime 	22.3
scalar RSUExampleScenario.node[102].veinsmobility 	stopTime 	328.4
scalar RSUExampleScenario.node[102].veinsmobility 	minSpeed 	0.25506918071676
scalar RSUExampleScenario.node[102].veinsmobility 	maxSpeed 	13.888985729825
scalar RSUExampleScenario.node[102].veinsmobility 	totalDistance 	203.31180114095
scalar RSUExampleScenario.node[102].veinsmobility 	totalCO2Emission 	78.337808562013
scalar RSUExampleScenario.node[103].appl 	#receivedMessages 	0
scalar RSUExampleScenario.node[103].nic.phy80211p 	busyTime 	0
scalar RSUExampleScenario.node[103].nic.mac1609_4 	ReceivedUnicastPackets 	0
scalar RSUExampleScenario.node[103].nic.mac1609_4 	ReceivedBroadcasts 	0
scalar RSUExampleScenario.node[103].nic.mac1609_4 	SentPackets 	0
scalar RSUExampleScenario.node[103].nic.mac1609_4 	SNIRLostPackets 	0
scalar RSUExampleScenario.node[103].nic.mac1609_4 	RXTXLostPackets 	0
scalar RSUExampleScenario.node[103].nic.mac1609_4 	TotalLostPackets 	0
scalar RSUExampleScenario.node[103].nic.mac1609_4 	DroppedPacketsInMac 	0
scalar RSUExampleScenario.node[103].nic.mac1609_4 	TooLittleTime 	0
scalar RSUExampleScenario.node[103].nic.mac1609_4 	TimesIntoBackoff 	0
scalar RSUExampleScenario.node[103].nic.mac1609_4 	SlotsBackoff 	0
scalar RSUExampleScenario.node[103].nic.mac1609_4 	NumInternalContention 	0
scalar RSUExampleScenario.node[103].nic.mac1609_4 	totalBusyTime 	0
scalar RSUExampleScenario.node[103].veinsmobility 	startTime 	309.1
scalar RSUExampleScenario.node[103].veinsmobility 	totalTime 	19.3
scalar RSUExampleScenario.node[103].veinsmobility 	stopTime 	328.4
scalar RSUExampleScenario.node[103].veinsmobility 	minSpeed 	0.25664312866516
scalar RSUExampleScenario.node[103].veinsmobility 	maxSpeed 	13.889141443588
scalar RSUExampleScenario.node[103].veinsmobility 	totalDistance 	167.26704249212
scalar RSUExampleScenario.node[103].veinsmobility 	totalCO2Emission 	74.152453665987
scalar RSUExampleScenario.node[104].appl 	#receivedMessages 	0
scalar RSUExampleScenario.node[104].nic.phy80211p 	busyTime 	0
scalar RSUExampleScenario.node[104].nic.mac1609_4 	ReceivedUnicastPackets 	0
scalar RSUExampleScenario.node[104].nic.mac1609_4 	ReceivedBroadcasts 	0
scalar RSUExampleScenario.node[104].nic.mac1609_4 	SentPackets 	0
scalar RSUExampleScenario.node[104].nic.mac1609_4 	SNIRLostPackets 	0
scalar RSUExampleScenario.node[104].nic.mac1609_4 	RXTXLostPackets 	0
scalar RSUExampleScenario.node[104].nic.mac1609_4 	TotalLostPackets 	0
scalar RSUExampleScenario.node[104].nic.mac1609_4 	DroppedPacketsInMac 	0
scalar RSUExampleScenario.node[104].nic.mac1609_4 	TooLittleTime 	0
scalar RSUExampleScenario.node[104].nic.mac1609_4 	TimesIntoBackoff 	0
scalar RSUExampleScenario.node[104].nic.mac1609_4 	SlotsBackoff 	0
scalar RSUExampleScenario.node[104].nic.mac1609_4 	NumInternalContention 	0
scalar RSUExampleScenario.node[104].nic.mac1609_4 	totalBusyTime 	0
scalar RSUExampleScenario.node[104].veinsmobility 	startTime 	312.1
scalar RSUExampleScenario.node[104].veinsmobility 	totalTime 	16.3
scalar RSUExampleScenario.node[104].veinsmobility 	stopTime 	328.4
scalar RSUExampleScenario.node[104].veinsmobility 	minSpeed 	0.25749523582007
scalar RSUExampleScenario.node[104].veinsmobility 	maxSpeed 	13.888259254813
scalar RSUExampleScenario.node[104].veinsmobility 	totalDistance 	131.75077247413
scalar RSUExampleScenario.node[104].veinsmobility 	totalCO2Emission 	53.292925629443
scalar RSUExampleScenario.node[105].appl 	#receivedMessages 	0
scalar RSUExampleScenario.node[105].nic.phy80211p 	busyTime 	0
scalar RSUExampleScenario.node[105].nic.mac1609_4 	ReceivedUnicastPackets 	0
scalar RSUExampleScenario.node[105].nic.mac1609_4 	ReceivedBroadcasts 	0
scalar RSUExampleScenario.node[105].nic.mac1609_4 	SentPackets 	0
scalar RSUExampleScenario.node[105].nic.mac1609_4 	SNIRLostPackets 	0
scalar RSUExampleScenario.node[105].nic.mac1609_4 	RXTXLostPackets 	0
scalar RSUExampleScenario.node[105].nic.mac1609_4 	TotalLostPackets 	0
scalar RSUExampleScenario.node[105].nic.mac1609_4 	DroppedPacketsInMac 	0
scalar RSUExampleScenario.node[105].nic.mac1609_4 	TooLittleTime 	0
scalar RSUExampleScenario.node[105].nic.mac1609_4 	TimesIntoBackoff 	0
scalar RSUExampleScenario.node[105].nic.mac1609_4 	SlotsBackoff 	0
scalar RSUExampleScenario.node[105].nic.mac1609_4 	NumInternalContention 	0
scalar RSUExampleScenario.node[105].nic.mac1609_4 	totalBusyTime 	0
scalar RSUExampleScenario.node[105].veinsmobility 	startTime 	315.1
scalar RSUExampleScenario.node[105].veinsmobility 	totalTime 	13.3
scalar RSUExampleScenario.node[105].veinsmobility 	stopTime 	328.4
scalar RSUExampleScenario.node[105].veinsmobility 	minSpeed 	0.25034466200811
scalar RSUExampleScenario.node[105].veinsmobility 	maxSpeed 	13.884740924882
scalar RSUExampleScenario.node[105].veinsmobility 	totalDistance 	114.70714515007
scalar RSUExampleScenario.node[105].veinsmobility 	totalCO2Emission 	42.445459946049
scalar RSUExampleScenario.node[106].appl 	#receivedMessages 	0
scalar RSUExampleScenario.node[106].nic.phy80211p 	busyTime 	0
scalar RSUExampleScenario.node[106].nic.mac1609_4 	ReceivedUnicastPackets 	0
scalar RSUExampleScenario.node[106].nic.mac1609_4 	ReceivedBroadcasts 	0
scalar RSUExampleScenario.node[106].nic.mac1609_4 	SentPackets 	0
scalar RSUExampleScenario.node[106].nic.mac1609_4 	SNIRLostPackets 	0
scalar RSUExampleScenario.node[106].nic.mac1609_4 	RXTXLostPackets 	0
scalar RSUExampleScenario.node[106].nic.mac1609_4 	TotalLostPackets 	0
scalar RSUExampleScenario.node[106].nic.mac1609_4 	DroppedPacketsInMac 	0
scalar RSUExampleScenario.node[106].nic.mac1609_4 	TooLittleTime 	0
scalar RSUExampleScenario.node[106].nic.mac1609_4 	TimesIntoBackoff 	0
scalar RSUExampleScenario.node[106].nic.mac1609_4 	SlotsBackoff 	0
scalar RSUExampleScenario.node[106].nic.mac1609_4 	NumInternalContention 	0
scalar RSUExampleScenario.node[106].nic.mac1609_4 	totalBusyTime 	0
scalar RSUExampleScenario.node[106].veinsmobility 	startTime 	318.1
scalar RSUExampleScenario.node[106].veinsmobility 	totalTime 	10.3
scalar RSUExampleScenario.node[106].veinsmobility 	stopTime 	328.4
scalar RSUExampleScenario.node[106].veinsmobility 	minSpeed 	0.24759516199632
scalar RSUExampleScenario.node[106].veinsmobility 	maxSpeed 	13.870772160399
scalar RSUExampleScenario.node[106].veinsmobility 	totalDistance 	92.505458480866
scalar RSUExampleScenario.node[106].veinsmobility 	totalCO2Emission 	39.231409056517
scalar RSUExampleScenario.node[107].appl 	#receivedMessages 	0
scalar RSUExampleScenario.node[107].nic.phy80211p 	busyTime 	0
scalar RSUExampleScenario.node[107].nic.mac1609_4 	ReceivedUnicastPackets 	0
scalar RSUExampleScenario.node[107].nic.mac1609_4 	ReceivedBroadcasts 	0
scalar RSUExampleScenario.node[107].nic.mac1609_4 	SentPackets 	0
scalar RSUExampleScenario.node[107].nic.mac1609_4 	SNIRLostPackets 	0
scalar RSUExampleScenario.node[107].nic.mac1609_4 	RXTXLostPackets 	0
scalar RSUExampleScenario.node[107].nic.mac1609_4 	TotalLostPackets 	0
scalar RSUExampleScenario.node[107].nic.mac1609_4 	DroppedPacketsInMac 	0
scalar RSUExampleScenario.node[107].nic.mac1609_4 	TooLittleTime 	0
scalar RSUExampleScenario.node[107].nic.mac1609_4 	TimesIntoBackoff 	0
scalar RSUExampleScenario.node[107].nic.mac1609_4 	SlotsBackoff 	0
scalar RSUExampleScenario.node[107].nic.mac1609_4 	NumInternalContention 	0
scalar RSUExampleScenario.node[107].nic.mac1609_4 	totalBusyTime 	0
scalar RSUExampleScenario.node[107].veinsmobility 	startTime 	321.1
scalar RSUExampleScenario.node[107].veinsmobility 	totalTime 	7.3
scalar RSUExampleScenario.node[107].veinsmobility 	stopTime 	328.4
scalar RSUExampleScenario.node[107].veinsmobility 	minSpeed 	0.25937943147286
scalar RSUExampleScenario.node[107].veinsmobility 	maxSpeed 	13.874359761728
scalar RSUExampleScenario.node[107].veinsmobility 	totalDistance 	56.648962863158
scalar RSUExampleScenario.node[107].veinsmobility 	totalCO2Emission 	35.033216064145
scalar RSUExampleScenario.node[108].appl 	#receivedMessages 	0
scalar RSUExampleScenario.node[108].nic.phy80211p 	busyTime 	0
scalar RSUExampleScenario.node[108].nic.mac1609_4 	ReceivedUnicastPackets 	0
scalar RSUExampleScenario.node[108].nic.mac1609_4 	ReceivedBroadcasts 	0
scalar RSUExampleScenario.node[108].nic.mac1609_4 	SentPackets 	0
scalar RSUExampleScenario.node[108].nic.mac1609_4 	SNIRLostPackets 	0
scalar RSUExampleScenario.node[108].nic.mac1609_4 	RXTXLostPackets 	0
scalar RSUExampleScenario.node[108].nic.mac1609_4 	TotalLostPackets 	0
scalar RSUExampleScenario.node[108].nic.mac1609_4 	DroppedPacketsInMac 	0
scalar RSUExampleScenario.node[108].nic.mac1609_4 	TooLittleTime 	0
scalar RSUExampleScenario.node[108].nic.mac1609_4 	TimesIntoBackoff 	0
scalar RSUExampleScenario.node[108].nic.mac1609_4 	SlotsBackoff 	0
scalar RSUExampleScenario.node[108].nic.mac1609_4 	NumInternalContention 	0
scalar RSUExampleScenario.node[108].nic.mac1609_4 	totalBusyTime 	0
scalar RSUExampleScenario.node[108].veinsmobility 	startTime 	324.1
scalar RSUExampleScenario.node[108].veinsmobility 	totalTime 	4.3
scalar RSUExampleScenario.node[108].veinsmobility 	stopTime 	328.4
scalar RSUExampleScenario.node[108].veinsmobility 	minSpeed 	0.25063135349075
scalar RSUExampleScenario.node[108].veinsmobility 	maxSpeed 	8.9025454242153
scalar RSUExampleScenario.node[108].veinsmobility 	totalDistance 	20.045305739814
scalar RSUExampleScenario.node[108].veinsmobility 	totalCO2Emission 	15.466331626781
scalar RSUExampleScenario.node[109].appl 	#receivedMessages 	0
scalar RSUExampleScenario.node[109].nic.phy80211p 	busyTime 	0
scalar RSUExampleScenario.node[109].nic.mac1609_4 	ReceivedUnicastPackets 	0
scalar RSUExampleScenario.node[109].nic.mac1609_4 	ReceivedBroadcasts 	0
scalar RSUExampleScenario.node[109].nic.mac1609_4 	SentPackets 	0
scalar RSUExampleScenario.node[109].nic.mac1609_4 	SNIRLostPackets 	0
scalar RSUExampleScenario.node[109].nic.mac1609_4 	RXTXLostPackets 	0
scalar RSUExampleScenario.node[109].nic.mac1609_4 	TotalLostPackets 	0
scalar RSUExampleScenario.node[109].nic.mac1609_4 	DroppedPacketsInMac 	0
scalar RSUExampleScenario.node[109].nic.mac1609_4 	TooLittleTime 	0
scalar RSUExampleScenario.node[109].nic.mac1609_4 	TimesIntoBackoff 	0
scalar RSUExampleScenario.node[109].nic.mac1609_4 	SlotsBackoff 	0
scalar RSUExampleScenario.node[109].nic.mac1609_4 	NumInternalContention 	0
scalar RSUExampleScenario.node[109].nic.mac1609_4 	totalBusyTime 	0
scalar RSUExampleScenario.node[109].veinsmobility 	startTime 	327.1
scalar RSUExampleScenario.node[109].veinsmobility 	totalTime 	1.3
scalar RSUExampleScenario.node[109].veinsmobility 	stopTime 	328.4
scalar RSUExampleScenario.node[109].veinsmobility 	minSpeed 	0.25715846307995
scalar RSUExampleScenario.node[109].veinsmobility 	maxSpeed 	2.7254781475047
scalar RSUExampleScenario.node[109].veinsmobility 	totalDistance 	2.0563501289836
scalar RSUExampleScenario.node[109].veinsmobility 	totalCO2Emission 	2.3814437822554
scalar RSUExampleScenario.node[11].appl 	#receivedMessages 	0
scalar RSUExampleScenario.node[11].nic.phy80211p 	busyTime 	1.1784625706062e-05
scalar RSUExampleScenario.node[11].nic.mac1609_4 	ReceivedUnicastPackets 	0
scalar RSUExampleScenario.node[11].nic.mac1609_4 	ReceivedBroadcasts 	19
scalar RSUExampleScenario.node[11].nic.mac1609_4 	SentPackets 	1
scalar RSUExampleScenario.node[11].nic.mac1609_4 	SNIRLostPackets 	10
scalar RSUExampleScenario.node[11].nic.mac1609_4 	RXTXLostPackets 	0
scalar RSUExampleScenario.node[11].nic.mac1609_4 	TotalLostPackets 	10
scalar RSUExampleScenario.node[11].nic.mac1609_4 	DroppedPacketsInMac 	0
scalar RSUExampleScenario.node[11].nic.mac1609_4 	TooLittleTime 	0
scalar RSUExampleScenario.node[11].nic.mac1609_4 	TimesIntoBackoff 	2
scalar RSUExampleScenario.node[11].nic.mac1609_4 	SlotsBackoff 	5
scalar RSUExampleScenario.node[11].nic.mac1609_4 	NumInternalContention 	0
scalar RSUExampleScenario.node[11].nic.mac1609_4 	totalBusyTime 	0.003000999975
scalar RSUExampleScenario.node[11].veinsmobility 	startTime 	33.1
scalar RSUExampleScenario.node[11].veinsmobility 	totalTime 	295.3
scalar RSUExampleScenario.node[11].veinsmobility 	stopTime 	328.4
scalar RSUExampleScenario.node[11].veinsmobility 	minSpeed 	2.8230809294593e-12
scalar RSUExampleScenario.node[11].veinsmobility 	maxSpeed 	13.999900360159
scalar RSUExampleScenario.node[11].veinsmobility 	totalDistance 	3379.8461108329
scalar RSUExampleScenario.node[11].veinsmobility 	totalCO2Emission 	730.17428725544
scalar RSUExampleScenario.node[12].appl 	#receivedMessages 	0
scalar RSUExampleScenario.node[12].nic.phy80211p 	busyTime 	1.0263427899418e-05
scalar RSUExampleScenario.node[12].nic.mac1609_4 	ReceivedUnicastPackets 	0
scalar RSUExampleScenario.node[12].nic.mac1609_4 	ReceivedBroadcasts 	15
scalar RSUExampleScenario.node[12].nic.mac1609_4 	SentPackets 	1
scalar RSUExampleScenario.node[12].nic.mac1609_4 	SNIRLostPackets 	10
scalar RSUExampleScenario.node[12].nic.mac1609_4 	RXTXLostPackets 	0
scalar RSUExampleScenario.node[12].nic.mac1609_4 	TotalLostPackets 	10
scalar RSUExampleScenario.node[12].nic.mac1609_4 	DroppedPacketsInMac 	0
scalar RSUExampleScenario.node[12].nic.mac1609_4 	TooLittleTime 	0
scalar RSUExampleScenario.node[12].nic.mac1609_4 	TimesIntoBackoff 	1
scalar RSUExampleScenario.node[12].nic.mac1609_4 	SlotsBackoff 	5
scalar RSUExampleScenario.node[12].nic.mac1609_4 	NumInternalContention 	0
scalar RSUExampleScenario.node[12].nic.mac1609_4 	totalBusyTime 	0.002520999979
scalar RSUExampleScenario.node[12].veinsmobility 	startTime 	36.1
scalar RSUExampleScenario.node[12].veinsmobility 	totalTime 	292.3
scalar RSUExampleScenario.node[12].veinsmobility 	stopTime 	328.4
scalar RSUExampleScenario.node[12].veinsmobility 	minSpeed 	0.00015692571335719
scalar RSUExampleScenario.node[12].veinsmobility 	maxSpeed 	13.99997836269
scalar RSUExampleScenario.node[12].veinsmobility 	totalDistance 	2748.9032233611
scalar RSUExampleScenario.node[12].veinsmobility 	totalCO2Emission 	711.70501284767
scalar RSUExampleScenario.node[13].appl 	#receivedMessages 	0
scalar RSUExampleScenario.node[13].nic.phy80211p 	busyTime 	9.1254752091255e-06
scalar RSUExampleScenario.node[13].nic.mac1609_4 	ReceivedUnicastPackets 	0
scalar RSUExampleScenario.node[13].nic.mac1609_4 	ReceivedBroadcasts 	12
scalar RSUExampleScenario.node[13].nic.mac1609_4 	SentPackets 	1
scalar RSUExampleScenario.node[13].nic.mac1609_4 	SNIRLostPackets 	10
scalar RSUExampleScenario.node[13].nic.mac1609_4 	RXTXLostPackets 	0
scalar RSUExampleScenario.node[13].nic.mac1609_4 	TotalLostPackets 	10
scalar RSUExampleScenario.node[13].nic.mac1609_4 	DroppedPacketsInMac 	0
scalar RSUExampleScenario.node[13].nic.mac1609_4 	TooLittleTime 	0
scalar RSUExampleScenario.node[13].nic.mac1609_4 	TimesIntoBackoff 	1
scalar RSUExampleScenario.node[13].nic.mac1609_4 	SlotsBackoff 	6
scalar RSUExampleScenario.node[13].nic.mac1609_4 	NumInternalContention 	0
scalar RSUExampleScenario.node[13].nic.mac1609_4 	totalBusyTime 	0.002160999982
scalar RSUExampleScenario.node[13].veinsmobility 	startTime 	39.1
scalar RSUExampleScenario.node[13].veinsmobility 	totalTime 	289.3
scalar RSUExampleScenario.node[13].veinsmobility 	stopTime 	328.4
scalar RSUExampleScenario.node[13].veinsmobility 	minSpeed 	0.0018617685637437
scalar RSUExampleScenario.node[13].veinsmobility 	maxSpeed 	13.999745033977
scalar RSUExampleScenario.node[13].veinsmobility 	totalDistance 	2740.3026526071
scalar RSUExampleScenario.node[13].veinsmobility 	totalCO2Emission 	698.98529084509
scalar RSUExampleScenario.node[14].appl 	#receivedMessages 	0
scalar RSUExampleScenario.node[14].nic.phy80211p 	busyTime 	8.8019559168704e-06
scalar RSUExampleScenario.node[14].nic.mac1609_4 	ReceivedUnicastPackets 	0
scalar RSUExampleScenario.node[14].nic.mac1609_4 	ReceivedBroadcasts 	13
scalar RSUExampleScenario.node[14].nic.mac1609_4 	SentPackets 	1
scalar RSUExampleScenario.node[14].nic.mac1609_4 	SNIRLostPackets 	8
scalar RSUExampleScenario.node[14].nic.mac1609_4 	RXTXLostPackets 	0
scalar RSUExampleScenario.node[14].nic.mac1609_4 	TotalLostPackets 	8
scalar RSUExampleScenario.node[14].nic.mac1609_4 	DroppedPacketsInMac 	0
scalar RSUExampleScenario.node[14].nic.mac1609_4 	TooLittleTime 	0
scalar RSUExampleScenario.node[14].nic.mac1609_4 	TimesIntoBackoff 	1
scalar RSUExampleScenario.node[14].nic.mac1609_4 	SlotsBackoff 	5
scalar RSUExampleScenario.node[14].nic.mac1609_4 	NumInternalContention 	0
scalar RSUExampleScenario.node[14].nic.mac1609_4 	totalBusyTime 	0.002160999982
scalar RSUExampleScenario.node[14].veinsmobility 	startTime 	42.1
scalar RSUExampleScenario.node[14].veinsmobility 	totalTime 	286.3
scalar RSUExampleScenario.node[14].veinsmobility 	stopTime 	328.4
scalar RSUExampleScenario.node[14].veinsmobility 	minSpeed 	0.01301512412892
scalar RSUExampleScenario.node[14].veinsmobility 	maxSpeed 	13.999613604036
scalar RSUExampleScenario.node[14].veinsmobility 	totalDistance 	2721.9378719346
scalar RSUExampleScenario.node[14].veinsmobility 	totalCO2Emission 	687.07792357084
scalar RSUExampleScenario.node[15].appl 	#receivedMessages 	0
scalar RSUExampleScenario.node[15].nic.phy80211p 	busyTime 	8.8951640628309e-06
scalar RSUExampleScenario.node[15].nic.mac1609_4 	ReceivedUnicastPackets 	0
scalar RSUExampleScenario.node[15].nic.mac1609_4 	ReceivedBroadcasts 	14
scalar RSUExampleScenario.node[15].nic.mac1609_4 	SentPackets 	1
scalar RSUExampleScenario.node[15].nic.mac1609_4 	SNIRLostPackets 	7
scalar RSUExampleScenario.node[15].nic.mac1609_4 	RXTXLostPackets 	0
scalar RSUExampleScenario.node[15].nic.mac1609_4 	TotalLostPackets 	7
scalar RSUExampleScenario.node[15].nic.mac1609_4 	DroppedPacketsInMac 	0
scalar RSUExampleScenario.node[15].nic.mac1609_4 	TooLittleTime 	0
scalar RSUExampleScenario.node[15].nic.mac1609_4 	TimesIntoBackoff 	2
scalar RSUExampleScenario.node[15].nic.mac1609_4 	SlotsBackoff 	4
scalar RSUExampleScenario.node[15].nic.mac1609_4 	NumInternalContention 	0
scalar RSUExampleScenario.node[15].nic.mac1609_4 	totalBusyTime 	0.002160999982
scalar RSUExampleScenario.node[15].veinsmobility 	startTime 	45.1
scalar RSUExampleScenario.node[15].veinsmobility 	totalTime 	283.3
scalar RSUExampleScenario.node[15].veinsmobility 	stopTime 	328.4
scalar RSUExampleScenario.node[15].veinsmobility 	minSpeed 	0.055827133992519
scalar RSUExampleScenario.node[15].veinsmobility 	maxSpeed 	13.999999478573
scalar RSUExampleScenario.node[15].veinsmobility 	totalDistance 	2714.6393106485
scalar RSUExampleScenario.node[15].veinsmobility 	totalCO2Emission 	681.76059087578
scalar RSUExampleScenario.node[16].appl 	#receivedMessages 	0
scalar RSUExampleScenario.node[16].nic.phy80211p 	busyTime 	8.9903673885123e-06
scalar RSUExampleScenario.node[16].nic.mac1609_4 	ReceivedUnicastPackets 	0
scalar RSUExampleScenario.node[16].nic.mac1609_4 	ReceivedBroadcasts 	15
scalar RSUExampleScenario.node[16].nic.mac1609_4 	SentPackets 	1
scalar RSUExampleScenario.node[16].nic.mac1609_4 	SNIRLostPackets 	6
scalar RSUExampleScenario.node[16].nic.mac1609_4 	RXTXLostPackets 	0
scalar RSUExampleScenario.node[16].nic.mac1609_4 	TotalLostPackets 	6
scalar RSUExampleScenario.node[16].nic.mac1609_4 	DroppedPacketsInMac 	0
scalar RSUExampleScenario.node[16].nic.mac1609_4 	TooLittleTime 	0
scalar RSUExampleScenario.node[16].nic.mac1609_4 	TimesIntoBackoff 	1
scalar RSUExampleScenario.node[16].nic.mac1609_4 	SlotsBackoff 	0
scalar RSUExampleScenario.node[16].nic.mac1609_4 	NumInternalContention 	0
scalar RSUExampleScenario.node[16].nic.mac1609_4 	totalBusyTime 	0.002280999981
scalar RSUExampleScenario.node[16].veinsmobility 	startTime 	48.1
scalar RSUExampleScenario.node[16].veinsmobility 	totalTime 	280.3
scalar RSUExampleScenario.node[16].veinsmobility 	stopTime 	328.4
scalar RSUExampleScenario.node[16].veinsmobility 	minSpeed 	0.19624483413523
scalar RSUExampleScenario.node[16].veinsmobility 	maxSpeed 	13.999973095939
scalar RSUExampleScenario.node[16].veinsmobility 	totalDistance 	2706.9791196097
scalar RSUExampleScenario.node[16].veinsmobility 	totalCO2Emission 	678.60219876958
scalar RSUExampleScenario.node[17].appl 	#receivedMessages 	0
scalar RSUExampleScenario.node[17].nic.phy80211p 	busyTime 	9.9531192823657e-06
scalar RSUExampleScenario.node[17].nic.mac1609_4 	ReceivedUnicastPackets 	0
scalar RSUExampleScenario.node[17].nic.mac1609_4 	ReceivedBroadcasts 	15
scalar RSUExampleScenario.node[17].nic.mac1609_4 	SentPackets 	1
scalar RSUExampleScenario.node[17].nic.mac1609_4 	SNIRLostPackets 	8
scalar RSUExampleScenario.node[17].nic.mac1609_4 	RXTXLostPackets 	0
scalar RSUExampleScenario.node[17].nic.mac1609_4 	TotalLostPackets 	8
scalar RSUExampleScenario.node[17].nic.mac1609_4 	DroppedPacketsInMac 	0
scalar RSUExampleScenario.node[17].nic.mac1609_4 	TooLittleTime 	0
scalar RSUExampleScenario.node[17].nic.mac1609_4 	TimesIntoBackoff 	1
scalar RSUExampleScenario.node[17].nic.mac1609_4 	SlotsBackoff 	3
scalar RSUExampleScenario.node[17].nic.mac1609_4 	NumInternalContention 	0
scalar RSUExampleScenario.node[17].nic.mac1609_4 	totalBusyTime 	0.00240099998
scalar RSUExampleScenario.node[17].veinsmobility 	startTime 	51.1
scalar RSUExampleScenario.node[17].veinsmobility 	totalTime 	277.3
scalar RSUExampleScenario.node[17].veinsmobility 	stopTime 	328.4
scalar RSUExampleScenario.node[17].veinsmobility 	minSpeed 	0.25575374198146
scalar RSUExampleScenario.node[17].veinsmobility 	maxSpeed 	13.999872276494
scalar RSUExampleScenario.node[17].veinsmobility 	totalDistance 	2699.0345852824
scalar RSUExampleScenario.node[17].veinsmobility 	totalCO2Emission 	670.26366293316
scalar RSUExampleScenario.node[18].appl 	#receivedMessages 	0
scalar RSUExampleScenario.node[18].nic.phy80211p 	busyTime 	1.0061975854903e-05
scalar RSUExampleScenario.node[18].nic.mac1609_4 	ReceivedUnicastPackets 	0
scalar RSUExampleScenario.node[18].nic.mac1609_4 	ReceivedBroadcasts 	15
scalar RSUExampleScenario.node[18].nic.mac1609_4 	SentPackets 	1
scalar RSUExampleScenario.node[18].nic.mac1609_4 	SNIRLostPackets 	8
scalar RSUExampleScenario.node[18].nic.mac1609_4 	RXTXLostPackets 	0
scalar RSUExampleScenario.node[18].nic.mac1609_4 	TotalLostPackets 	8
scalar RSUExampleScenario.node[18].nic.mac1609_4 	DroppedPacketsInMac 	0
scalar RSUExampleScenario.node[18].nic.mac1609_4 	TooLittleTime 	0
scalar RSUExampleScenario.node[18].nic.mac1609_4 	TimesIntoBackoff 	1
scalar RSUExampleScenario.node[18].nic.mac1609_4 	SlotsBackoff 	2
scalar RSUExampleScenario.node[18].nic.mac1609_4 	NumInternalContention 	0
scalar RSUExampleScenario.node[18].nic.mac1609_4 	totalBusyTime 	0.00240099998
scalar RSUExampleScenario.node[18].veinsmobility 	startTime 	54.1
scalar RSUExampleScenario.node[18].veinsmobility 	totalTime 	274.3
scalar RSUExampleScenario.node[18].veinsmobility 	stopTime 	328.4
scalar RSUExampleScenario.node[18].veinsmobility 	minSpeed 	0.25452556009637
scalar RSUExampleScenario.node[18].veinsmobility 	maxSpeed 	13.999799459716
scalar RSUExampleScenario.node[18].veinsmobility 	totalDistance 	2689.8508819876
scalar RSUExampleScenario.node[18].veinsmobility 	totalCO2Emission 	671.56747838543
scalar RSUExampleScenario.node[19].appl 	#receivedMessages 	0
scalar RSUExampleScenario.node[19].nic.phy80211p 	busyTime 	9.7309250939919e-06
scalar RSUExampleScenario.node[19].nic.mac1609_4 	ReceivedUnicastPackets 	0
scalar RSUExampleScenario.node[19].nic.mac1609_4 	ReceivedBroadcasts 	14
scalar RSUExampleScenario.node[19].nic.mac1609_4 	SentPackets 	1
scalar RSUExampleScenario.node[19].nic.mac1609_4 	SNIRLostPackets 	8
scalar RSUExampleScenario.node[19].nic.mac1609_4 	RXTXLostPackets 	0
scalar RSUExampleScenario.node[19].nic.mac1609_4 	TotalLostPackets 	8
scalar RSUExampleScenario.node[19].nic.mac1609_4 	DroppedPacketsInMac 	0
scalar RSUExampleScenario.node[19].nic.mac1609_4 	TooLittleTime 	0
scalar RSUExampleScenario.node[19].nic.mac1609_4 	TimesIntoBackoff 	1
scalar RSUExampleScenario.node[19].nic.mac1609_4 	SlotsBackoff 	5
scalar RSUExampleScenario.node[19].nic.mac1609_4 	NumInternalContention 	0
scalar RSUExampleScenario.node[19].nic.mac1609_4 	totalBusyTime 	0.002280999981
scalar RSUExampleScenario.node[19].veinsmobility 	startTime 	57.1
scalar RSUExampleScenario.node[19].veinsmobility 	totalTime 	271.3
scalar RSUExampleScenario.node[19].veinsmobility 	stopTime 	328.4
scalar RSUExampleScenario.node[19].veinsmobility 	minSpeed 	0.25546776798018
scalar RSUExampleScenario.node[19].veinsmobility 	maxSpeed 	13.999719697011
scalar RSUExampleScenario.node[19].veinsmobility 	totalDistance 	2677.1863995496
scalar RSUExampleScenario.node[19].veinsmobility 	totalCO2Emission 	669.88835765078
scalar RSUExampleScenario.node[20].appl 	#receivedMessages 	0
scalar RSUExampleScenario.node[20].nic.phy80211p 	busyTime 	9.3924710361536e-06
scalar RSUExampleScenario.node[20].nic.mac1609_4 	ReceivedUnicastPackets 	0
scalar RSUExampleScenario.node[20].nic.mac1609_4 	ReceivedBroadcasts 	13
scalar RSUExampleScenario.node[20].nic.mac1609_4 	SentPackets 	1
scalar RSUExampleScenario.node[20].nic.mac1609_4 	SNIRLostPackets 	8
scalar RSUExampleScenario.node[20].nic.mac1609_4 	RXTXLostPackets 	0
scalar RSUExampleScenario.node[20].nic.mac1609_4 	TotalLostPackets 	8
scalar RSUExampleScenario.node[20].nic.mac1609_4 	DroppedPacketsInMac 	0
scalar RSUExampleScenario.node[20].nic.mac1609_4 	TooLittleTime 	0
scalar RSUExampleScenario.node[20].nic.mac1609_4 	TimesIntoBackoff 	1
scalar RSUExampleScenario.node[20].nic.mac1609_4 	SlotsBackoff 	4
scalar RSUExampleScenario.node[20].nic.mac1609_4 	NumInternalContention 	0
scalar RSUExampleScenario.node[20].nic.mac1609_4 	totalBusyTime 	0.002160999982
scalar RSUExampleScenario.node[20].veinsmobility 	startTime 	60.1
scalar RSUExampleScenario.node[20].veinsmobility 	totalTime 	268.3
scalar RSUExampleScenario.node[20].veinsmobility 	stopTime 	328.4
scalar RSUExampleScenario.node[20].veinsmobility 	minSpeed 	0
scalar RSUExampleScenario.node[20].veinsmobility 	maxSpeed 	13.99914290084
scalar RSUExampleScenario.node[20].veinsmobility 	totalDistance 	2326.9413264029
scalar RSUExampleScenario.node[20].veinsmobility 	totalCO2Emission 	652.05659821969
scalar RSUExampleScenario.node[21].appl 	#receivedMessages 	0
scalar RSUExampleScenario.node[21].nic.phy80211p 	busyTime 	9.4986806596306e-06
scalar RSUExampleScenario.node[21].nic.mac1609_4 	ReceivedUnicastPackets 	0
scalar RSUExampleScenario.node[21].nic.mac1609_4 	ReceivedBroadcasts 	13
scalar RSUExampleScenario.node[21].nic.mac1609_4 	SentPackets 	1
scalar RSUExampleScenario.node[21].nic.mac1609_4 	SNIRLostPackets 	8
scalar RSUExampleScenario.node[21].nic.mac1609_4 	RXTXLostPackets 	0
scalar RSUExampleScenario.node[21].nic.mac1609_4 	TotalLostPackets 	8
scalar RSUExampleScenario.node[21].nic.mac1609_4 	DroppedPacketsInMac 	0
scalar RSUExampleScenario.node[21].nic.mac1609_4 	TooLittleTime 	0
scalar RSUExampleScenario.node[21].nic.mac1609_4 	TimesIntoBackoff 	2
scalar RSUExampleScenario.node[21].nic.mac1609_4 	SlotsBackoff 	7
scalar RSUExampleScenario.node[21].nic.mac1609_4 	NumInternalContention 	0
scalar RSUExampleScenario.node[21].nic.mac1609_4 	totalBusyTime 	0.002160999982
scalar RSUExampleScenario.node[21].veinsmobility 	startTime 	63.1
scalar RSUExampleScenario.node[21].veinsmobility 	totalTime 	265.3
scalar RSUExampleScenario.node[21].veinsmobility 	stopTime 	328.4
scalar RSUExampleScenario.node[21].veinsmobility 	minSpeed 	0.24927679822454
scalar RSUExampleScenario.node[21].veinsmobility 	maxSpeed 	13.99987098614
scalar RSUExampleScenario.node[21].veinsmobility 	totalDistance 	2896.3275787736
scalar RSUExampleScenario.node[21].veinsmobility 	totalCO2Emission 	705.07606636621
scalar RSUExampleScenario.node[22].appl 	#receivedMessages 	0
scalar RSUExampleScenario.node[22].nic.phy80211p 	busyTime 	7.7773541097979e-06
scalar RSUExampleScenario.node[22].nic.mac1609_4 	ReceivedUnicastPackets 	0
scalar RSUExampleScenario.node[22].nic.mac1609_4 	ReceivedBroadcasts 	15
scalar RSUExampleScenario.node[22].nic.mac1609_4 	SentPackets 	1
scalar RSUExampleScenario.node[22].nic.mac1609_4 	SNIRLostPackets 	2
scalar RSUExampleScenario.node[22].nic.mac1609_4 	RXTXLostPackets 	0
scalar RSUExampleScenario.node[22].nic.mac1609_4 	TotalLostPackets 	2
scalar RSUExampleScenario.node[22].nic.mac1609_4 	DroppedPacketsInMac 	0
scalar RSUExampleScenario.node[22].nic.mac1609_4 	TooLittleTime 	0
scalar RSUExampleScenario.node[22].nic.mac1609_4 	TimesIntoBackoff 	2
scalar RSUExampleScenario.node[22].nic.mac1609_4 	SlotsBackoff 	8
scalar RSUExampleScenario.node[22].nic.mac1609_4 	NumInternalContention 	0
scalar RSUExampleScenario.node[22].nic.mac1609_4 	totalBusyTime 	0.002040999983
scalar RSUExampleScenario.node[22].veinsmobility 	startTime 	66.1
scalar RSUExampleScenario.node[22].veinsmobility 	totalTime 	262.3
scalar RSUExampleScenario.node[22].veinsmobility 	stopTime 	328.4
scalar RSUExampleScenario.node[22].veinsmobility 	minSpeed 	0.24913902792754
scalar RSUExampleScenario.node[22].veinsmobility 	maxSpeed 	13.999738187268
scalar RSUExampleScenario.node[22].veinsmobility 	totalDistance 	2840.0752467572
scalar RSUExampleScenario.node[22].veinsmobility 	totalCO2Emission 	693.61766868564
scalar RSUExampleScenario.node[23].appl 	#receivedMessages 	0
scalar RSUExampleScenario.node[23].nic.phy80211p 	busyTime 	5.553412988816e-06
scalar RSUExampleScenario.node[23].nic.mac1609_4 	ReceivedUnicastPackets 	0
scalar RSUExampleScenario.node[23].nic.mac1609_4 	ReceivedBroadcasts 	12
scalar RSUExampleScenario.node[23].nic.mac1609_4 	SentPackets 	1
scalar RSUExampleScenario.node[23].nic.mac1609_4 	SNIRLostPackets 	0
scalar RSUExampleScenario.node[23].nic.mac1609_4 	RXTXLostPackets 	0
scalar RSUExampleScenario.node[23].nic.mac1609_4 	TotalLostPackets 	0
scalar RSUExampleScenario.node[23].nic.mac1609_4 	DroppedPacketsInMac 	0
scalar RSUExampleScenario.node[23].nic.mac1609_4 	TooLittleTime 	0
scalar RSUExampleScenario.node[23].nic.mac1609_4 	TimesIntoBackoff 	2
scalar RSUExampleScenario.node[23].nic.mac1609_4 	SlotsBackoff 	3
scalar RSUExampleScenario.node[23].nic.mac1609_4 	NumInternalContention 	0
scalar RSUExampleScenario.node[23].nic.mac1609_4 	totalBusyTime 	0.001560999987
scalar RSUExampleScenario.node[23].veinsmobility 	startTime 	69.1
scalar RSUExampleScenario.node[23].veinsmobility 	totalTime 	259.3
scalar RSUExampleScenario.node[23].veinsmobility 	stopTime 	328.4
scalar RSUExampleScenario.node[23].veinsmobility 	minSpeed 	1.7137079416216e-11
scalar RSUExampleScenario.node[23].veinsmobility 	maxSpeed 	13.999552081393
scalar RSUExampleScenario.node[23].veinsmobility 	totalDistance 	2215.2268489387
scalar RSUExampleScenario.node[23].veinsmobility 	totalCO2Emission 	625.06116662232
scalar RSUExampleScenario.node[24].appl 	#receivedMessages 	0
scalar RSUExampleScenario.node[24].nic.phy80211p 	busyTime 	1.123683174405e-05
scalar RSUExampleScenario.node[24].nic.mac1609_4 	ReceivedUnicastPackets 	0
scalar RSUExampleScenario.node[24].nic.mac1609_4 	ReceivedBroadcasts 	20
scalar RSUExampleScenario.node[24].nic.mac1609_4 	SentPackets 	1
scalar RSUExampleScenario.node[24].nic.mac1609_4 	SNIRLostPackets 	4
scalar RSUExampleScenario.node[24].nic.mac1609_4 	RXTXLostPackets 	0
scalar RSUExampleScenario.node[24].nic.mac1609_4 	TotalLostPackets 	4
scalar RSUExampleScenario.node[24].nic.mac1609_4 	DroppedPacketsInMac 	0
scalar RSUExampleScenario.node[24].nic.mac1609_4 	TooLittleTime 	0
scalar RSUExampleScenario.node[24].nic.mac1609_4 	TimesIntoBackoff 	1
scalar RSUExampleScenario.node[24].nic.mac1609_4 	SlotsBackoff 	7
scalar RSUExampleScenario.node[24].nic.mac1609_4 	NumInternalContention 	0
scalar RSUExampleScenario.node[24].nic.mac1609_4 	totalBusyTime 	0.002760999977
scalar RSUExampleScenario.node[24].veinsmobility 	startTime 	72.1
scalar RSUExampleScenario.node[24].veinsmobility 	totalTime 	256.3
scalar RSUExampleScenario.node[24].veinsmobility 	stopTime 	328.4
scalar RSUExampleScenario.node[24].veinsmobility 	minSpeed 	0.25438760111481
scalar RSUExampleScenario.node[24].veinsmobility 	maxSpeed 	13.999837873178
scalar RSUExampleScenario.node[24].veinsmobility 	totalDistance 	3283.915393992
scalar RSUExampleScenario.node[24].veinsmobility 	totalCO2Emission 	666.67671343181
scalar RSUExampleScenario.node[25].appl 	#receivedMessages 	0
scalar RSUExampleScenario.node[25].nic.phy80211p 	busyTime 	6.1587050414528e-06
scalar RSUExampleScenario.node[25].nic.mac1609_4 	ReceivedUnicastPackets 	0
scalar RSUExampleScenario.node[25].nic.mac1609_4 	ReceivedBroadcasts 	13
scalar RSUExampleScenario.node[25].nic.mac1609_4 	SentPackets 	1
scalar RSUExampleScenario.node[25].nic.mac1609_4 	SNIRLostPackets 	0
scalar RSUExampleScenario.node[25].nic.mac1609_4 	RXTXLostPackets 	0
scalar RSUExampleScenario.node[25].nic.mac1609_4 	TotalLostPackets 	0
scalar RSUExampleScenario.node[25].nic.mac1609_4 	DroppedPacketsInMac 	0
scalar RSUExampleScenario.node[25].nic.mac1609_4 	TooLittleTime 	0
scalar RSUExampleScenario.node[25].nic.mac1609_4 	TimesIntoBackoff 	1
scalar RSUExampleScenario.node[25].nic.mac1609_4 	SlotsBackoff 	6
scalar RSUExampleScenario.node[25].nic.mac1609_4 	NumInternalContention 	0
scalar RSUExampleScenario.node[25].nic.mac1609_4 	totalBusyTime 	0.001680999986
scalar RSUExampleScenario.node[25].veinsmobility 	startTime 	75.1
scalar RSUExampleScenario.node[25].veinsmobility 	totalTime 	253.3
scalar RSUExampleScenario.node[25].veinsmobility 	stopTime 	328.4
scalar RSUExampleScenario.node[25].veinsmobility 	minSpeed 	6.2306373211596e-10
scalar RSUExampleScenario.node[25].veinsmobility 	maxSpeed 	13.998653823556
scalar RSUExampleScenario.node[25].veinsmobility 	totalDistance 	2196.9693267362
scalar RSUExampleScenario.node[25].veinsmobility 	totalCO2Emission 	619.25953551294
scalar RSUExampleScenario.node[26].appl 	#receivedMessages 	0
scalar RSUExampleScenario.node[26].nic.phy80211p 	busyTime 	6.7119456092689e-06
scalar RSUExampleScenario.node[26].nic.mac1609_4 	ReceivedUnicastPackets 	0
scalar RSUExampleScenario.node[26].nic.mac1609_4 	ReceivedBroadcasts 	14
scalar RSUExampleScenario.node[26].nic.mac1609_4 	SentPackets 	1
scalar RSUExampleScenario.node[26].nic.mac1609_4 	SNIRLostPackets 	0
scalar RSUExampleScenario.node[26].nic.mac1609_4 	RXTXLostPackets 	0
scalar RSUExampleScenario.node[26].nic.mac1609_4 	TotalLostPackets 	0
scalar RSUExampleScenario.node[26].nic.mac1609_4 	DroppedPacketsInMac 	0
scalar RSUExampleScenario.node[26].nic.mac1609_4 	TooLittleTime 	0
scalar RSUExampleScenario.node[26].nic.mac1609_4 	TimesIntoBackoff 	1
scalar RSUExampleScenario.node[26].nic.mac1609_4 	SlotsBackoff 	3
scalar RSUExampleScenario.node[26].nic.mac1609_4 	NumInternalContention 	0
scalar RSUExampleScenario.node[26].nic.mac1609_4 	totalBusyTime 	0.001800999985
scalar RSUExampleScenario.node[26].veinsmobility 	startTime 	78.1
scalar RSUExampleScenario.node[26].veinsmobility 	totalTime 	250.3
scalar RSUExampleScenario.node[26].veinsmobility 	stopTime 	328.4
scalar RSUExampleScenario.node[26].veinsmobility 	minSpeed 	1.0572759066415e-08
scalar RSUExampleScenario.node[26].veinsmobility 	maxSpeed 	13.999913413348
scalar RSUExampleScenario.node[26].veinsmobility 	totalDistance 	2171.3157724739
scalar RSUExampleScenario.node[26].veinsmobility 	totalCO2Emission 	608.96306249352
scalar RSUExampleScenario.node[27].appl 	#receivedMessages 	0
scalar RSUExampleScenario.node[27].nic.phy80211p 	busyTime 	7.7638495107157e-06
scalar RSUExampleScenario.node[27].nic.mac1609_4 	ReceivedUnicastPackets 	0
scalar RSUExampleScenario.node[27].nic.mac1609_4 	ReceivedBroadcasts 	14
scalar RSUExampleScenario.node[27].nic.mac1609_4 	SentPackets 	1
scalar RSUExampleScenario.node[27].nic.mac1609_4 	SNIRLostPackets 	2
scalar RSUExampleScenario.node[27].nic.mac1609_4 	RXTXLostPackets 	0
scalar RSUExampleScenario.node[27].nic.mac1609_4 	TotalLostPackets 	2
scalar RSUExampleScenario.node[27].nic.mac1609_4 	DroppedPacketsInMac 	0
scalar RSUExampleScenario.node[27].nic.mac1609_4 	TooLittleTime 	0
scalar RSUExampleScenario.node[27].nic.mac1609_4 	TimesIntoBackoff 	1
scalar RSUExampleScenario.node[27].nic.mac1609_4 	SlotsBackoff 	4
scalar RSUExampleScenario.node[27].nic.mac1609_4 	NumInternalContention 	0
scalar RSUExampleScenario.node[27].nic.mac1609_4 	totalBusyTime 	0.001920999984
scalar RSUExampleScenario.node[27].veinsmobility 	startTime 	81.1
scalar RSUExampleScenario.node[27].veinsmobility 	totalTime 	247.3
scalar RSUExampleScenario.node[27].veinsmobility 	stopTime 	328.4
scalar RSUExampleScenario.node[27].veinsmobility 	minSpeed 	1.2859461607067e-07
scalar RSUExampleScenario.node[27].veinsmobility 	maxSpeed 	13.999258952951
scalar RSUExampleScenario.node[27].veinsmobility 	totalDistance 	2142.1766557652
scalar RSUExampleScenario.node[27].veinsmobility 	totalCO2Emission 	599.7719394576
scalar RSUExampleScenario.node[28].appl 	#receivedMessages 	0
scalar RSUExampleScenario.node[28].nic.phy80211p 	busyTime 	9.33278747851e-06
scalar RSUExampleScenario.node[28].nic.mac1609_4 	ReceivedUnicastPackets 	0
scalar RSUExampleScenario.node[28].nic.mac1609_4 	ReceivedBroadcasts 	15
scalar RSUExampleScenario.node[28].nic.mac1609_4 	SentPackets 	1
scalar RSUExampleScenario.node[28].nic.mac1609_4 	SNIRLostPackets 	4
scalar RSUExampleScenario.node[28].nic.mac1609_4 	RXTXLostPackets 	0
scalar RSUExampleScenario.node[28].nic.mac1609_4 	TotalLostPackets 	4
scalar RSUExampleScenario.node[28].nic.mac1609_4 	DroppedPacketsInMac 	0
scalar RSUExampleScenario.node[28].nic.mac1609_4 	TooLittleTime 	0
scalar RSUExampleScenario.node[28].nic.mac1609_4 	TimesIntoBackoff 	1
scalar RSUExampleScenario.node[28].nic.mac1609_4 	SlotsBackoff 	5
scalar RSUExampleScenario.node[28].nic.mac1609_4 	NumInternalContention 	0
scalar RSUExampleScenario.node[28].nic.mac1609_4 	totalBusyTime 	0.002160999982
scalar RSUExampleScenario.node[28].veinsmobility 	startTime 	84.1
scalar RSUExampleScenario.node[28].veinsmobility 	totalTime 	244.3
scalar RSUExampleScenario.node[28].veinsmobility 	stopTime 	328.4
scalar RSUExampleScenario.node[28].veinsmobility 	minSpeed 	1.1606469665976e-06
scalar RSUExampleScenario.node[28].veinsmobility 	maxSpeed 	13.999199004152
scalar RSUExampleScenario.node[28].veinsmobility 	totalDistance 	2115.3761742238
scalar RSUExampleScenario.node[28].veinsmobility 	totalCO2Emission 	595.27943677363
scalar RSUExampleScenario.node[29].appl 	#receivedMessages 	0
scalar RSUExampleScenario.node[29].nic.phy80211p 	busyTime 	9.4488188188976e-06
scalar RSUExampleScenario.node[29].nic.mac1609_4 	ReceivedUnicastPackets 	0
scalar RSUExampleScenario.node[29].nic.mac1609_4 	ReceivedBroadcasts 	15
scalar RSUExampleScenario.node[29].nic.mac1609_4 	SentPackets 	1
scalar RSUExampleScenario.node[29].nic.mac1609_4 	SNIRLostPackets 	4
scalar RSUExampleScenario.node[29].nic.mac1609_4 	RXTXLostPackets 	0
scalar RSUExampleScenario.node[29].nic.mac1609_4 	TotalLostPackets 	4
scalar RSUExampleScenario.node[29].nic.mac1609_4 	DroppedPacketsInMac 	0
scalar RSUExampleScenario.node[29].nic.mac1609_4 	TooLittleTime 	0
scalar RSUExampleScenario.node[29].nic.mac1609_4 	TimesIntoBackoff 	2
scalar RSUExampleScenario.node[29].nic.mac1609_4 	SlotsBackoff 	3
scalar RSUExampleScenario.node[29].nic.mac1609_4 	NumInternalContention 	0
scalar RSUExampleScenario.node[29].nic.mac1609_4 	totalBusyTime 	0.002160999982
scalar RSUExampleScenario.node[29].veinsmobility 	startTime 	87.1
scalar RSUExampleScenario.node[29].veinsmobility 	totalTime 	241.3
scalar RSUExampleScenario.node[29].veinsmobility 	stopTime 	328.4
scalar RSUExampleScenario.node[29].veinsmobility 	minSpeed 	8.3310412928586e-06
scalar RSUExampleScenario.node[29].veinsmobility 	maxSpeed 	13.998594847177
scalar RSUExampleScenario.node[29].veinsmobility 	totalDistance 	2085.5932027385
scalar RSUExampleScenario.node[29].veinsmobility 	totalCO2Emission 	585.99544831043
scalar RSUExampleScenario.node[30].appl 	#receivedMessages 	0
scalar RSUExampleScenario.node[30].nic.phy80211p 	busyTime 	6.0428031389005e-06
scalar RSUExampleScenario.node[30].nic.mac1609_4 	ReceivedUnicastPackets 	0
scalar RSUExampleScenario.node[30].nic.mac1609_4 	ReceivedBroadcasts 	12
scalar RSUExampleScenario.node[30].nic.mac1609_4 	SentPackets 	1
scalar RSUExampleScenario.node[30].nic.mac1609_4 	SNIRLostPackets 	0
scalar RSUExampleScenario.node[30].nic.mac1609_4 	RXTXLostPackets 	0
scalar RSUExampleScenario.node[30].nic.mac1609_4 	TotalLostPackets 	0
scalar RSUExampleScenario.node[30].nic.mac1609_4 	DroppedPacketsInMac 	0
scalar RSUExampleScenario.node[30].nic.mac1609_4 	TooLittleTime 	0
scalar RSUExampleScenario.node[30].nic.mac1609_4 	TimesIntoBackoff 	1
scalar RSUExampleScenario.node[30].nic.mac1609_4 	SlotsBackoff 	2
scalar RSUExampleScenario.node[30].nic.mac1609_4 	NumInternalContention 	0
scalar RSUExampleScenario.node[30].nic.mac1609_4 	totalBusyTime 	0.001560999987
scalar RSUExampleScenario.node[30].veinsmobility 	startTime 	90.1
scalar RSUExampleScenario.node[30].veinsmobility 	totalTime 	238.3
scalar RSUExampleScenario.node[30].veinsmobility 	stopTime 	328.4
scalar RSUExampleScenario.node[30].veinsmobility 	minSpeed 	0
scalar RSUExampleScenario.node[30].veinsmobility 	maxSpeed 	13.999966582269
scalar RSUExampleScenario.node[30].veinsmobility 	totalDistance 	2690.0574783186
scalar RSUExampleScenario.node[30].veinsmobility 	totalCO2Emission 	579.73525119036
scalar RSUExampleScenario.node[31].appl 	#receivedMessages 	0
scalar RSUExampleScenario.node[31].nic.phy80211p 	busyTime 	6.629834198895e-06
scalar RSUExampleScenario.node[31].nic.mac1609_4 	ReceivedUnicastPackets 	0
scalar RSUExampleScenario.node[31].nic.mac1609_4 	ReceivedBroadcasts 	13
scalar RSUExampleScenario.node[31].nic.mac1609_4 	SentPackets 	1
scalar RSUExampleScenario.node[31].nic.mac1609_4 	SNIRLostPackets 	0
scalar RSUExampleScenario.node[31].nic.mac1609_4 	RXTXLostPackets 	0
scalar RSUExampleScenario.node[31].nic.mac1609_4 	TotalLostPackets 	0
scalar RSUExampleScenario.node[31].nic.mac1609_4 	DroppedPacketsInMac 	0
scalar RSUExampleScenario.node[31].nic.mac1609_4 	TooLittleTime 	0
scalar RSUExampleScenario.node[31].nic.mac1609_4 	TimesIntoBackoff 	1
scalar RSUExampleScenario.node[31].nic.mac1609_4 	SlotsBackoff 	2
scalar RSUExampleScenario.node[31].nic.mac1609_4 	NumInternalContention 	0
scalar RSUExampleScenario.node[31].nic.mac1609_4 	totalBusyTime 	0.001680999986
scalar RSUExampleScenario.node[31].veinsmobility 	startTime 	93.1
scalar RSUExampleScenario.node[31].veinsmobility 	totalTime 	235.3
scalar RSUExampleScenario.node[31].veinsmobility 	stopTime 	328.4
scalar RSUExampleScenario.node[31].veinsmobility 	minSpeed 	5.4586137124052e-11
scalar RSUExampleScenario.node[31].veinsmobility 	maxSpeed 	13.999994791788
scalar RSUExampleScenario.node[31].veinsmobility 	totalDistance 	2663.283446103
scalar RSUExampleScenario.node[31].veinsmobility 	totalCO2Emission 	575.2529650999
scalar RSUExampleScenario.node[32].appl 	#receivedMessages 	0
scalar RSUExampleScenario.node[32].nic.phy80211p 	busyTime 	6.7154540981489e-06
scalar RSUExampleScenario.node[32].nic.mac1609_4 	ReceivedUnicastPackets 	0
scalar RSUExampleScenario.node[32].nic.mac1609_4 	ReceivedBroadcasts 	13
scalar RSUExampleScenario.node[32].nic.mac1609_4 	SentPackets 	1
scalar RSUExampleScenario.node[32].nic.mac1609_4 	SNIRLostPackets 	0
scalar RSUExampleScenario.node[32].nic.mac1609_4 	RXTXLostPackets 	0
scalar RSUExampleScenario.node[32].nic.mac1609_4 	TotalLostPackets 	0
scalar RSUExampleScenario.node[32].nic.mac1609_4 	DroppedPacketsInMac 	0
scalar RSUExampleScenario.node[32].nic.mac1609_4 	TooLittleTime 	0
scalar RSUExampleScenario.node[32].nic.mac1609_4 	TimesIntoBackoff 	1
scalar RSUExampleScenario.node[32].nic.mac1609_4 	SlotsBackoff 	2
scalar RSUExampleScenario.node[32].nic.mac1609_4 	NumInternalContention 	0
scalar RSUExampleScenario.node[32].nic.mac1609_4 	totalBusyTime 	0.001680999986
scalar RSUExampleScenario.node[32].veinsmobility 	startTime 	96.1
scalar RSUExampleScenario.node[32].veinsmobility 	totalTime 	232.3
scalar RSUExampleScenario.node[32].veinsmobility 	stopTime 	328.4
scalar RSUExampleScenario.node[32].veinsmobility 	minSpeed 	2.0657679026855e-09
scalar RSUExampleScenario.node[32].veinsmobility 	maxSpeed 	13.999821383543
scalar RSUExampleScenario.node[32].veinsmobility 	totalDistance 	2634.7813016997
scalar RSUExampleScenario.node[32].veinsmobility 	totalCO2Emission 	566.05254301481
scalar RSUExampleScenario.node[33].appl 	#receivedMessages 	0
scalar RSUExampleScenario.node[33].nic.phy80211p 	busyTime 	6.8033143785434e-06
scalar RSUExampleScenario.node[33].nic.mac1609_4 	ReceivedUnicastPackets 	0
scalar RSUExampleScenario.node[33].nic.mac1609_4 	ReceivedBroadcasts 	13
scalar RSUExampleScenario.node[33].nic.mac1609_4 	SentPackets 	1
scalar RSUExampleScenario.node[33].nic.mac1609_4 	SNIRLostPackets 	0
scalar RSUExampleScenario.node[33].nic.mac1609_4 	RXTXLostPackets 	0
scalar RSUExampleScenario.node[33].nic.mac1609_4 	TotalLostPackets 	0
scalar RSUExampleScenario.node[33].nic.mac1609_4 	DroppedPacketsInMac 	0
scalar RSUExampleScenario.node[33].nic.mac1609_4 	TooLittleTime 	0
scalar RSUExampleScenario.node[33].nic.mac1609_4 	TimesIntoBackoff 	1
scalar RSUExampleScenario.node[33].nic.mac1609_4 	SlotsBackoff 	0
scalar RSUExampleScenario.node[33].nic.mac1609_4 	NumInternalContention 	0
scalar RSUExampleScenario.node[33].nic.mac1609_4 	totalBusyTime 	0.001680999986
scalar RSUExampleScenario.node[33].veinsmobility 	startTime 	99.1
scalar RSUExampleScenario.node[33].veinsmobility 	totalTime 	229.3
scalar RSUExampleScenario.node[33].veinsmobility 	stopTime 	328.4
scalar RSUExampleScenario.node[33].veinsmobility 	minSpeed 	4.2947472469545e-08
scalar RSUExampleScenario.node[33].veinsmobility 	maxSpeed 	13.999970024223
scalar RSUExampleScenario.node[33].veinsmobility 	totalDistance 	2604.4675781092
scalar RSUExampleScenario.node[33].veinsmobility 	totalCO2Emission 	560.63446584679
scalar RSUExampleScenario.node[34].appl 	#receivedMessages 	0
scalar RSUExampleScenario.node[34].nic.phy80211p 	busyTime 	7.4237736897923e-06
scalar RSUExampleScenario.node[34].nic.mac1609_4 	ReceivedUnicastPackets 	0
scalar RSUExampleScenario.node[34].nic.mac1609_4 	ReceivedBroadcasts 	12
scalar RSUExampleScenario.node[34].nic.mac1609_4 	SentPackets 	1
scalar RSUExampleScenario.node[34].nic.mac1609_4 	SNIRLostPackets 	2
scalar RSUExampleScenario.node[34].nic.mac1609_4 	RXTXLostPackets 	0
scalar RSUExampleScenario.node[34].nic.mac1609_4 	TotalLostPackets 	2
scalar RSUExampleScenario.node[34].nic.mac1609_4 	DroppedPacketsInMac 	0
scalar RSUExampleScenario.node[34].nic.mac1609_4 	TooLittleTime 	0
scalar RSUExampleScenario.node[34].nic.mac1609_4 	TimesIntoBackoff 	2
scalar RSUExampleScenario.node[34].nic.mac1609_4 	SlotsBackoff 	10
scalar RSUExampleScenario.node[34].nic.mac1609_4 	NumInternalContention 	0
scalar RSUExampleScenario.node[34].nic.mac1609_4 	totalBusyTime 	0.001680999986
scalar RSUExampleScenario.node[34].veinsmobility 	startTime 	102.1
scalar RSUExampleScenario.node[34].veinsmobility 	totalTime 	226.3
scalar RSUExampleScenario.node[34].veinsmobility 	stopTime 	328.4
scalar RSUExampleScenario.node[34].veinsmobility 	minSpeed 	6.5134618883579e-07
scalar RSUExampleScenario.node[34].veinsmobility 	maxSpeed 	13.999974413444
scalar RSUExampleScenario.node[34].veinsmobility 	totalDistance 	2577.7018323635
scalar RSUExampleScenario.node[34].veinsmobility 	totalCO2Emission 	554.68922656261
scalar RSUExampleScenario.node[35].appl 	#receivedMessages 	0
scalar RSUExampleScenario.node[35].nic.phy80211p 	busyTime 	8.5982981818182e-06
scalar RSUExampleScenario.node[35].nic.mac1609_4 	ReceivedUnicastPackets 	0
scalar RSUExampleScenario.node[35].nic.mac1609_4 	ReceivedBroadcasts 	14
scalar RSUExampleScenario.node[35].nic.mac1609_4 	SentPackets 	1
scalar RSUExampleScenario.node[35].nic.mac1609_4 	SNIRLostPackets 	2
scalar RSUExampleScenario.node[35].nic.mac1609_4 	RXTXLostPackets 	0
scalar RSUExampleScenario.node[35].nic.mac1609_4 	TotalLostPackets 	2
scalar RSUExampleScenario.node[35].nic.mac1609_4 	DroppedPacketsInMac 	0
scalar RSUExampleScenario.node[35].nic.mac1609_4 	TooLittleTime 	0
scalar RSUExampleScenario.node[35].nic.mac1609_4 	TimesIntoBackoff 	1
scalar RSUExampleScenario.node[35].nic.mac1609_4 	SlotsBackoff 	1
scalar RSUExampleScenario.node[35].nic.mac1609_4 	NumInternalContention 	0
scalar RSUExampleScenario.node[35].nic.mac1609_4 	totalBusyTime 	0.001920999984
scalar RSUExampleScenario.node[35].veinsmobility 	startTime 	105.1
scalar RSUExampleScenario.node[35].veinsmobility 	totalTime 	223.3
scalar RSUExampleScenario.node[35].veinsmobility 	stopTime 	328.4
scalar RSUExampleScenario.node[35].veinsmobility 	minSpeed 	8.9683013457408e-06
scalar RSUExampleScenario.node[35].veinsmobility 	maxSpeed 	13.999848813147
scalar RSUExampleScenario.node[35].veinsmobility 	totalDistance 	2539.0612979232
scalar RSUExampleScenario.node[35].veinsmobility 	totalCO2Emission 	549.93696510769
scalar RSUExampleScenario.node[36].appl 	#receivedMessages 	0
scalar RSUExampleScenario.node[36].nic.phy80211p 	busyTime 	9.2600997866546e-06
scalar RSUExampleScenario.node[36].nic.mac1609_4 	ReceivedUnicastPackets 	0
scalar RSUExampleScenario.node[36].nic.mac1609_4 	ReceivedBroadcasts 	15
scalar RSUExampleScenario.node[36].nic.mac1609_4 	SentPackets 	1
scalar RSUExampleScenario.node[36].nic.mac1609_4 	SNIRLostPackets 	2
scalar RSUExampleScenario.node[36].nic.mac1609_4 	RXTXLostPackets 	0
scalar RSUExampleScenario.node[36].nic.mac1609_4 	TotalLostPackets 	2
scalar RSUExampleScenario.node[36].nic.mac1609_4 	DroppedPacketsInMac 	0
scalar RSUExampleScenario.node[36].nic.mac1609_4 	TooLittleTime 	0
scalar RSUExampleScenario.node[36].nic.mac1609_4 	TimesIntoBackoff 	2
scalar RSUExampleScenario.node[36].nic.mac1609_4 	SlotsBackoff 	7
scalar RSUExampleScenario.node[36].nic.mac1609_4 	NumInternalContention 	0
scalar RSUExampleScenario.node[36].nic.mac1609_4 	totalBusyTime 	0.002040999983
scalar RSUExampleScenario.node[36].veinsmobility 	startTime 	108.1
scalar RSUExampleScenario.node[36].veinsmobility 	totalTime 	220.3
scalar RSUExampleScenario.node[36].veinsmobility 	stopTime 	328.4
scalar RSUExampleScenario.node[36].veinsmobility 	minSpeed 	8.8604870900498e-05
scalar RSUExampleScenario.node[36].veinsmobility 	maxSpeed 	13.999910423264
scalar RSUExampleScenario.node[36].veinsmobility 	totalDistance 	2513.7721793063
scalar RSUExampleScenario.node[36].veinsmobility 	totalCO2Emission 	540.25578718886
scalar RSUExampleScenario.node[37].appl 	#receivedMessages 	0
scalar RSUExampleScenario.node[37].nic.phy80211p 	busyTime 	9.9401747906121e-06
scalar RSUExampleScenario.node[37].nic.mac1609_4 	ReceivedUnicastPackets 	0
scalar RSUExampleScenario.node[37].nic.mac1609_4 	ReceivedBroadcasts 	16
scalar RSUExampleScenario.node[37].nic.mac1609_4 	SentPackets 	1
scalar RSUExampleScenario.node[37].nic.mac1609_4 	SNIRLostPackets 	2
scalar RSUExampleScenario.node[37].nic.mac1609_4 	RXTXLostPackets 	0
scalar RSUExampleScenario.node[37].nic.mac1609_4 	TotalLostPackets 	2
scalar RSUExampleScenario.node[37].nic.mac1609_4 	DroppedPacketsInMac 	0
scalar RSUExampleScenario.node[37].nic.mac1609_4 	TooLittleTime 	0
scalar RSUExampleScenario.node[37].nic.mac1609_4 	TimesIntoBackoff 	1
scalar RSUExampleScenario.node[37].nic.mac1609_4 	SlotsBackoff 	2
scalar RSUExampleScenario.node[37].nic.mac1609_4 	NumInternalContention 	0
scalar RSUExampleScenario.node[37].nic.mac1609_4 	totalBusyTime 	0.002160999982
scalar RSUExampleScenario.node[37].veinsmobility 	startTime 	111.1
scalar RSUExampleScenario.node[37].veinsmobility 	totalTime 	217.3
scalar RSUExampleScenario.node[37].veinsmobility 	stopTime 	328.4
scalar RSUExampleScenario.node[37].veinsmobility 	minSpeed 	0.00068966465843006
scalar RSUExampleScenario.node[37].veinsmobility 	maxSpeed 	13.999913079552
scalar RSUExampleScenario.node[37].veinsmobility 	totalDistance 	2480.4141302807
scalar RSUExampleScenario.node[37].veinsmobility 	totalCO2Emission 	539.80047910885
scalar RSUExampleScenario.node[38].appl 	#receivedMessages 	0
scalar RSUExampleScenario.node[38].nic.phy80211p 	busyTime 	1.175921595427e-05
scalar RSUExampleScenario.node[38].nic.mac1609_4 	ReceivedUnicastPackets 	0
scalar RSUExampleScenario.node[38].nic.mac1609_4 	ReceivedBroadcasts 	15
scalar RSUExampleScenario.node[38].nic.mac1609_4 	SentPackets 	1
scalar RSUExampleScenario.node[38].nic.mac1609_4 	SNIRLostPackets 	6
scalar RSUExampleScenario.node[38].nic.mac1609_4 	RXTXLostPackets 	0
scalar RSUExampleScenario.node[38].nic.mac1609_4 	TotalLostPackets 	6
scalar RSUExampleScenario.node[38].nic.mac1609_4 	DroppedPacketsInMac 	0
scalar RSUExampleScenario.node[38].nic.mac1609_4 	TooLittleTime 	0
scalar RSUExampleScenario.node[38].nic.mac1609_4 	TimesIntoBackoff 	1
scalar RSUExampleScenario.node[38].nic.mac1609_4 	SlotsBackoff 	3
scalar RSUExampleScenario.node[38].nic.mac1609_4 	NumInternalContention 	0
scalar RSUExampleScenario.node[38].nic.mac1609_4 	totalBusyTime 	0.002280999981
scalar RSUExampleScenario.node[38].veinsmobility 	startTime 	114.1
scalar RSUExampleScenario.node[38].veinsmobility 	totalTime 	214.3
scalar RSUExampleScenario.node[38].veinsmobility 	stopTime 	328.4
scalar RSUExampleScenario.node[38].veinsmobility 	minSpeed 	0.0039659718150275
scalar RSUExampleScenario.node[38].veinsmobility 	maxSpeed 	13.999964022022
scalar RSUExampleScenario.node[38].veinsmobility 	totalDistance 	2460.2603320745
scalar RSUExampleScenario.node[38].veinsmobility 	totalCO2Emission 	529.15937232753
scalar RSUExampleScenario.node[39].appl 	#receivedMessages 	0
scalar RSUExampleScenario.node[39].nic.phy80211p 	busyTime 	1.1926171221013e-05
scalar RSUExampleScenario.node[39].nic.mac1609_4 	ReceivedUnicastPackets 	0
scalar RSUExampleScenario.node[39].nic.mac1609_4 	ReceivedBroadcasts 	15
scalar RSUExampleScenario.node[39].nic.mac1609_4 	SentPackets 	1
scalar RSUExampleScenario.node[39].nic.mac1609_4 	SNIRLostPackets 	6
scalar RSUExampleScenario.node[39].nic.mac1609_4 	RXTXLostPackets 	0
scalar RSUExampleScenario.node[39].nic.mac1609_4 	TotalLostPackets 	6
scalar RSUExampleScenario.node[39].nic.mac1609_4 	DroppedPacketsInMac 	0
scalar RSUExampleScenario.node[39].nic.mac1609_4 	TooLittleTime 	0
scalar RSUExampleScenario.node[39].nic.mac1609_4 	TimesIntoBackoff 	1
scalar RSUExampleScenario.node[39].nic.mac1609_4 	SlotsBackoff 	2
scalar RSUExampleScenario.node[39].nic.mac1609_4 	NumInternalContention 	0
scalar RSUExampleScenario.node[39].nic.mac1609_4 	totalBusyTime 	0.002280999981
scalar RSUExampleScenario.node[39].veinsmobility 	startTime 	117.1
scalar RSUExampleScenario.node[39].veinsmobility 	totalTime 	211.3
scalar RSUExampleScenario.node[39].veinsmobility 	stopTime 	328.4
scalar RSUExampleScenario.node[39].veinsmobility 	minSpeed 	0.018779198919656
scalar RSUExampleScenario.node[39].veinsmobility 	maxSpeed 	13.999927774628
scalar RSUExampleScenario.node[39].veinsmobility 	totalDistance 	2422.0552369638
scalar RSUExampleScenario.node[39].veinsmobility 	totalCO2Emission 	521.27018674148
scalar RSUExampleScenario.node[40].appl 	#receivedMessages 	0
scalar RSUExampleScenario.node[40].nic.phy80211p 	busyTime 	1.5554488588574e-05
scalar RSUExampleScenario.node[40].nic.mac1609_4 	ReceivedUnicastPackets 	0
scalar RSUExampleScenario.node[40].nic.mac1609_4 	ReceivedBroadcasts 	21
scalar RSUExampleScenario.node[40].nic.mac1609_4 	SentPackets 	1
scalar RSUExampleScenario.node[40].nic.mac1609_4 	SNIRLostPackets 	6
scalar RSUExampleScenario.node[40].nic.mac1609_4 	RXTXLostPackets 	0
scalar RSUExampleScenario.node[40].nic.mac1609_4 	TotalLostPackets 	6
scalar RSUExampleScenario.node[40].nic.mac1609_4 	DroppedPacketsInMac 	0
scalar RSUExampleScenario.node[40].nic.mac1609_4 	TooLittleTime 	0
scalar RSUExampleScenario.node[40].nic.mac1609_4 	TimesIntoBackoff 	1
scalar RSUExampleScenario.node[40].nic.mac1609_4 	SlotsBackoff 	7
scalar RSUExampleScenario.node[40].nic.mac1609_4 	NumInternalContention 	0
scalar RSUExampleScenario.node[40].nic.mac1609_4 	totalBusyTime 	0.003000999975
scalar RSUExampleScenario.node[40].veinsmobility 	startTime 	120.1
scalar RSUExampleScenario.node[40].veinsmobility 	totalTime 	208.3
scalar RSUExampleScenario.node[40].veinsmobility 	stopTime 	328.4
scalar RSUExampleScenario.node[40].veinsmobility 	minSpeed 	0
scalar RSUExampleScenario.node[40].veinsmobility 	maxSpeed 	13.999750361929
scalar RSUExampleScenario.node[40].veinsmobility 	totalDistance 	2208.1180161505
scalar RSUExampleScenario.node[40].veinsmobility 	totalCO2Emission 	517.77513243446
scalar RSUExampleScenario.node[41].appl 	#receivedMessages 	0
scalar RSUExampleScenario.node[41].nic.phy80211p 	busyTime 	1.7535314028251e-05
scalar RSUExampleScenario.node[41].nic.mac1609_4 	ReceivedUnicastPackets 	0
scalar RSUExampleScenario.node[41].nic.mac1609_4 	ReceivedBroadcasts 	22
scalar RSUExampleScenario.node[41].nic.mac1609_4 	SentPackets 	1
scalar RSUExampleScenario.node[41].nic.mac1609_4 	SNIRLostPackets 	8
scalar RSUExampleScenario.node[41].nic.mac1609_4 	RXTXLostPackets 	0
scalar RSUExampleScenario.node[41].nic.mac1609_4 	TotalLostPackets 	8
scalar RSUExampleScenario.node[41].nic.mac1609_4 	DroppedPacketsInMac 	0
scalar RSUExampleScenario.node[41].nic.mac1609_4 	TooLittleTime 	0
scalar RSUExampleScenario.node[41].nic.mac1609_4 	TimesIntoBackoff 	1
scalar RSUExampleScenario.node[41].nic.mac1609_4 	SlotsBackoff 	6
scalar RSUExampleScenario.node[41].nic.mac1609_4 	NumInternalContention 	0
scalar RSUExampleScenario.node[41].nic.mac1609_4 	totalBusyTime 	0.003240999973
scalar RSUExampleScenario.node[41].veinsmobility 	startTime 	123.1
scalar RSUExampleScenario.node[41].veinsmobility 	totalTime 	205.3
scalar RSUExampleScenario.node[41].veinsmobility 	stopTime 	328.4
scalar RSUExampleScenario.node[41].veinsmobility 	minSpeed 	1.3086365885114e-12
scalar RSUExampleScenario.node[41].veinsmobility 	maxSpeed 	13.999875641265
scalar RSUExampleScenario.node[41].veinsmobility 	totalDistance 	2171.6773722697
scalar RSUExampleScenario.node[41].veinsmobility 	totalCO2Emission 	508.44767654448
scalar RSUExampleScenario.node[42].appl 	#receivedMessages 	0
scalar RSUExampleScenario.node[42].nic.phy80211p 	busyTime 	1.4829461072664e-05
scalar RSUExampleScenario.node[42].nic.mac1609_4 	ReceivedUnicastPackets 	0
scalar RSUExampleScenario.node[42].nic.mac1609_4 	ReceivedBroadcasts 	15
scalar RSUExampleScenario.node[42].nic.mac1609_4 	SentPackets 	1
scalar RSUExampleScenario.node[42].nic.mac1609_4 	SNIRLostPackets 	10
scalar RSUExampleScenario.node[42].nic.mac1609_4 	RXTXLostPackets 	0
scalar RSUExampleScenario.node[42].nic.mac1609_4 	TotalLostPackets 	10
scalar RSUExampleScenario.node[42].nic.mac1609_4 	DroppedPacketsInMac 	0
scalar RSUExampleScenario.node[42].nic.mac1609_4 	TooLittleTime 	0
scalar RSUExampleScenario.node[42].nic.mac1609_4 	TimesIntoBackoff 	1
scalar RSUExampleScenario.node[42].nic.mac1609_4 	SlotsBackoff 	4
scalar RSUExampleScenario.node[42].nic.mac1609_4 	NumInternalContention 	0
scalar RSUExampleScenario.node[42].nic.mac1609_4 	totalBusyTime 	0.002520999979
scalar RSUExampleScenario.node[42].veinsmobility 	startTime 	126.1
scalar RSUExampleScenario.node[42].veinsmobility 	totalTime 	202.3
scalar RSUExampleScenario.node[42].veinsmobility 	stopTime 	328.4
scalar RSUExampleScenario.node[42].veinsmobility 	minSpeed 	0.00013823690890071
[...]
scalar RSUExampleScenario.node[87].nic.mac1609_4 	SNIRLostPackets 	4
scalar RSUExampleScenario.node[87].nic.mac1609_4 	RXTXLostPackets 	0
scalar RSUExampleScenario.node[87].nic.mac1609_4 	TotalLostPackets 	4
scalar RSUExampleScenario.node[87].nic.mac1609_4 	DroppedPacketsInMac 	0
scalar RSUExampleScenario.node[87].nic.mac1609_4 	TooLittleTime 	0
scalar RSUExampleScenario.node[87].nic.mac1609_4 	TimesIntoBackoff 	1
scalar RSUExampleScenario.node[87].nic.mac1609_4 	SlotsBackoff 	0
scalar RSUExampleScenario.node[87].nic.mac1609_4 	NumInternalContention 	0
scalar RSUExampleScenario.node[87].nic.mac1609_4 	totalBusyTime 	0.001921130544
scalar RSUExampleScenario.node[87].veinsmobility 	startTime 	261.1
scalar RSUExampleScenario.node[87].veinsmobility 	totalTime 	67.3
scalar RSUExampleScenario.node[87].veinsmobility 	stopTime 	328.4
scalar RSUExampleScenario.node[87].veinsmobility 	minSpeed 	0.2506971425938
scalar RSUExampleScenario.node[87].veinsmobility 	maxSpeed 	13.999889549585
scalar RSUExampleScenario.node[87].veinsmobility 	totalDistance 	588.27715504262
scalar RSUExampleScenario.node[87].veinsmobility 	totalCO2Emission 	180.16860225458
scalar RSUExampleScenario.node[88].appl 	#receivedMessages 	0
scalar RSUExampleScenario.node[88].nic.phy80211p 	busyTime 	3.1726282783826e-05
scalar RSUExampleScenario.node[88].nic.mac1609_4 	ReceivedUnicastPackets 	0
scalar RSUExampleScenario.node[88].nic.mac1609_4 	ReceivedBroadcasts 	15
scalar RSUExampleScenario.node[88].nic.mac1609_4 	SentPackets 	1
scalar RSUExampleScenario.node[88].nic.mac1609_4 	SNIRLostPackets 	2
scalar RSUExampleScenario.node[88].nic.mac1609_4 	RXTXLostPackets 	1
scalar RSUExampleScenario.node[88].nic.mac1609_4 	TotalLostPackets 	3
scalar RSUExampleScenario.node[88].nic.mac1609_4 	DroppedPacketsInMac 	0
scalar RSUExampleScenario.node[88].nic.mac1609_4 	TooLittleTime 	0
scalar RSUExampleScenario.node[88].nic.mac1609_4 	TimesIntoBackoff 	1
scalar RSUExampleScenario.node[88].nic.mac1609_4 	SlotsBackoff 	6
scalar RSUExampleScenario.node[88].nic.mac1609_4 	NumInternalContention 	0
scalar RSUExampleScenario.node[88].nic.mac1609_4 	totalBusyTime 	0.002040999983
scalar RSUExampleScenario.node[88].veinsmobility 	startTime 	264.1
scalar RSUExampleScenario.node[88].veinsmobility 	totalTime 	64.3
scalar RSUExampleScenario.node[88].veinsmobility 	stopTime 	328.4
scalar RSUExampleScenario.node[88].veinsmobility 	minSpeed 	0.25665041211667
scalar RSUExampleScenario.node[88].veinsmobility 	maxSpeed 	13.999067206425
scalar RSUExampleScenario.node[88].veinsmobility 	totalDistance 	579.90675664536
scalar RSUExampleScenario.node[88].veinsmobility 	totalCO2Emission 	177.96868128696
scalar RSUExampleScenario.node[89].appl 	#receivedMessages 	0
scalar RSUExampleScenario.node[89].nic.phy80211p 	busyTime 	3.5236541305057e-05
scalar RSUExampleScenario.node[89].nic.mac1609_4 	ReceivedUnicastPackets 	0
scalar RSUExampleScenario.node[89].nic.mac1609_4 	ReceivedBroadcasts 	15
scalar RSUExampleScenario.node[89].nic.mac1609_4 	SentPackets 	1
scalar RSUExampleScenario.node[89].nic.mac1609_4 	SNIRLostPackets 	3
scalar RSUExampleScenario.node[89].nic.mac1609_4 	RXTXLostPackets 	0
scalar RSUExampleScenario.node[89].nic.mac1609_4 	TotalLostPackets 	3
scalar RSUExampleScenario.node[89].nic.mac1609_4 	DroppedPacketsInMac 	0
scalar RSUExampleScenario.node[89].nic.mac1609_4 	TooLittleTime 	0
scalar RSUExampleScenario.node[89].nic.mac1609_4 	TimesIntoBackoff 	2
scalar RSUExampleScenario.node[89].nic.mac1609_4 	SlotsBackoff 	11
scalar RSUExampleScenario.node[89].nic.mac1609_4 	NumInternalContention 	0
scalar RSUExampleScenario.node[89].nic.mac1609_4 	totalBusyTime 	0.002040999983
scalar RSUExampleScenario.node[89].veinsmobility 	startTime 	267.1
scalar RSUExampleScenario.node[89].veinsmobility 	totalTime 	61.3
scalar RSUExampleScenario.node[89].veinsmobility 	stopTime 	328.4
scalar RSUExampleScenario.node[89].veinsmobility 	minSpeed 	0.2485781487904
scalar RSUExampleScenario.node[89].veinsmobility 	maxSpeed 	13.999937292396
scalar RSUExampleScenario.node[89].veinsmobility 	totalDistance 	565.42573255403
scalar RSUExampleScenario.node[89].veinsmobility 	totalCO2Emission 	173.61352739932
scalar RSUExampleScenario.node[90].appl 	#receivedMessages 	0
scalar RSUExampleScenario.node[90].nic.phy80211p 	busyTime 	0
scalar RSUExampleScenario.node[90].nic.mac1609_4 	ReceivedUnicastPackets 	0
scalar RSUExampleScenario.node[90].nic.mac1609_4 	ReceivedBroadcasts 	0
scalar RSUExampleScenario.node[90].nic.mac1609_4 	SentPackets 	0
scalar RSUExampleScenario.node[90].nic.mac1609_4 	SNIRLostPackets 	0
scalar RSUExampleScenario.node[90].nic.mac1609_4 	RXTXLostPackets 	0
scalar RSUExampleScenario.node[90].nic.mac1609_4 	TotalLostPackets 	0
scalar RSUExampleScenario.node[90].nic.mac1609_4 	DroppedPacketsInMac 	0
scalar RSUExampleScenario.node[90].nic.mac1609_4 	TooLittleTime 	0
scalar RSUExampleScenario.node[90].nic.mac1609_4 	TimesIntoBackoff 	0
scalar RSUExampleScenario.node[90].nic.mac1609_4 	SlotsBackoff 	0
scalar RSUExampleScenario.node[90].nic.mac1609_4 	NumInternalContention 	0
scalar RSUExampleScenario.node[90].nic.mac1609_4 	totalBusyTime 	0
scalar RSUExampleScenario.node[90].veinsmobility 	startTime 	270.1
scalar RSUExampleScenario.node[90].veinsmobility 	totalTime 	58.3
scalar RSUExampleScenario.node[90].veinsmobility 	stopTime 	328.4
scalar RSUExampleScenario.node[90].veinsmobility 	minSpeed 	0.25395467706979
scalar RSUExampleScenario.node[90].veinsmobility 	maxSpeed 	13.999823577488
scalar RSUExampleScenario.node[90].veinsmobility 	totalDistance 	656.75967721572
scalar RSUExampleScenario.node[90].veinsmobility 	totalCO2Emission 	175.77382830526
scalar RSUExampleScenario.node[91].appl 	#receivedMessages 	0
scalar RSUExampleScenario.node[91].nic.phy80211p 	busyTime 	0
scalar RSUExampleScenario.node[91].nic.mac1609_4 	ReceivedUnicastPackets 	0
scalar RSUExampleScenario.node[91].nic.mac1609_4 	ReceivedBroadcasts 	0
scalar RSUExampleScenario.node[91].nic.mac1609_4 	SentPackets 	0
scalar RSUExampleScenario.node[91].nic.mac1609_4 	SNIRLostPackets 	0
scalar RSUExampleScenario.node[91].nic.mac1609_4 	RXTXLostPackets 	0
scalar RSUExampleScenario.node[91].nic.mac1609_4 	TotalLostPackets 	0
scalar RSUExampleScenario.node[91].nic.mac1609_4 	DroppedPacketsInMac 	0
scalar RSUExampleScenario.node[91].nic.mac1609_4 	TooLittleTime 	0
scalar RSUExampleScenario.node[91].nic.mac1609_4 	TimesIntoBackoff 	0
scalar RSUExampleScenario.node[91].nic.mac1609_4 	SlotsBackoff 	0
scalar RSUExampleScenario.node[91].nic.mac1609_4 	NumInternalContention 	0
scalar RSUExampleScenario.node[91].nic.mac1609_4 	totalBusyTime 	0
scalar RSUExampleScenario.node[91].veinsmobility 	startTime 	273.1
scalar RSUExampleScenario.node[91].veinsmobility 	totalTime 	55.3
scalar RSUExampleScenario.node[91].veinsmobility 	stopTime 	328.4
scalar RSUExampleScenario.node[91].veinsmobility 	minSpeed 	0.25719641404646
scalar RSUExampleScenario.node[91].veinsmobility 	maxSpeed 	13.999478638431
scalar RSUExampleScenario.node[91].veinsmobility 	totalDistance 	614.01310398139
scalar RSUExampleScenario.node[91].veinsmobility 	totalCO2Emission 	171.04945465939
scalar RSUExampleScenario.node[92].appl 	#receivedMessages 	0
scalar RSUExampleScenario.node[92].nic.phy80211p 	busyTime 	0
scalar RSUExampleScenario.node[92].nic.mac1609_4 	ReceivedUnicastPackets 	0
scalar RSUExampleScenario.node[92].nic.mac1609_4 	ReceivedBroadcasts 	0
scalar RSUExampleScenario.node[92].nic.mac1609_4 	SentPackets 	0
scalar RSUExampleScenario.node[92].nic.mac1609_4 	SNIRLostPackets 	0
scalar RSUExampleScenario.node[92].nic.mac1609_4 	RXTXLostPackets 	0
scalar RSUExampleScenario.node[92].nic.mac1609_4 	TotalLostPackets 	0
scalar RSUExampleScenario.node[92].nic.mac1609_4 	DroppedPacketsInMac 	0
scalar RSUExampleScenario.node[92].nic.mac1609_4 	TooLittleTime 	0
scalar RSUExampleScenario.node[92].nic.mac1609_4 	TimesIntoBackoff 	0
scalar RSUExampleScenario.node[92].nic.mac1609_4 	SlotsBackoff 	0
scalar RSUExampleScenario.node[92].nic.mac1609_4 	NumInternalContention 	0
scalar RSUExampleScenario.node[92].nic.mac1609_4 	totalBusyTime 	0
scalar RSUExampleScenario.node[92].veinsmobility 	startTime 	276.1
scalar RSUExampleScenario.node[92].veinsmobility 	totalTime 	52.3
scalar RSUExampleScenario.node[92].veinsmobility 	stopTime 	328.4
scalar RSUExampleScenario.node[92].veinsmobility 	minSpeed 	0.25233854376082
scalar RSUExampleScenario.node[92].veinsmobility 	maxSpeed 	13.999657759818
scalar RSUExampleScenario.node[92].veinsmobility 	totalDistance 	573.85795790494
scalar RSUExampleScenario.node[92].veinsmobility 	totalCO2Emission 	164.55533686481
scalar RSUExampleScenario.node[93].appl 	#receivedMessages 	0
scalar RSUExampleScenario.node[93].nic.phy80211p 	busyTime 	0
scalar RSUExampleScenario.node[93].nic.mac1609_4 	ReceivedUnicastPackets 	0
scalar RSUExampleScenario.node[93].nic.mac1609_4 	ReceivedBroadcasts 	0
scalar RSUExampleScenario.node[93].nic.mac1609_4 	SentPackets 	0
scalar RSUExampleScenario.node[93].nic.mac1609_4 	SNIRLostPackets 	0
scalar RSUExampleScenario.node[93].nic.mac1609_4 	RXTXLostPackets 	0
scalar RSUExampleScenario.node[93].nic.mac1609_4 	TotalLostPackets 	0
scalar RSUExampleScenario.node[93].nic.mac1609_4 	DroppedPacketsInMac 	0
scalar RSUExampleScenario.node[93].nic.mac1609_4 	TooLittleTime 	0
scalar RSUExampleScenario.node[93].nic.mac1609_4 	TimesIntoBackoff 	0
scalar RSUExampleScenario.node[93].nic.mac1609_4 	SlotsBackoff 	0
scalar RSUExampleScenario.node[93].nic.mac1609_4 	NumInternalContention 	0
scalar RSUExampleScenario.node[93].nic.mac1609_4 	totalBusyTime 	0
scalar RSUExampleScenario.node[93].veinsmobility 	startTime 	279.1
scalar RSUExampleScenario.node[93].veinsmobility 	totalTime 	49.3
scalar RSUExampleScenario.node[93].veinsmobility 	stopTime 	328.4
scalar RSUExampleScenario.node[93].veinsmobility 	minSpeed 	0.25166594451224
scalar RSUExampleScenario.node[93].veinsmobility 	maxSpeed 	13.999732258709
scalar RSUExampleScenario.node[93].veinsmobility 	totalDistance 	531.57194582726
scalar RSUExampleScenario.node[93].veinsmobility 	totalCO2Emission 	156.87525320297
scalar RSUExampleScenario.node[94].appl 	#receivedMessages 	0
scalar RSUExampleScenario.node[94].nic.phy80211p 	busyTime 	0
scalar RSUExampleScenario.node[94].nic.mac1609_4 	ReceivedUnicastPackets 	0
scalar RSUExampleScenario.node[94].nic.mac1609_4 	ReceivedBroadcasts 	0
scalar RSUExampleScenario.node[94].nic.mac1609_4 	SentPackets 	0
scalar RSUExampleScenario.node[94].nic.mac1609_4 	SNIRLostPackets 	0
scalar RSUExampleScenario.node[94].nic.mac1609_4 	RXTXLostPackets 	0
scalar RSUExampleScenario.node[94].nic.mac1609_4 	TotalLostPackets 	0
scalar RSUExampleScenario.node[94].nic.mac1609_4 	DroppedPacketsInMac 	0
scalar RSUExampleScenario.node[94].nic.mac1609_4 	TooLittleTime 	0
scalar RSUExampleScenario.node[94].nic.mac1609_4 	TimesIntoBackoff 	0
scalar RSUExampleScenario.node[94].nic.mac1609_4 	SlotsBackoff 	0
scalar RSUExampleScenario.node[94].nic.mac1609_4 	NumInternalContention 	0
scalar RSUExampleScenario.node[94].nic.mac1609_4 	totalBusyTime 	0
scalar RSUExampleScenario.node[94].veinsmobility 	startTime 	282.1
scalar RSUExampleScenario.node[94].veinsmobility 	totalTime 	46.3
scalar RSUExampleScenario.node[94].veinsmobility 	stopTime 	328.4
scalar RSUExampleScenario.node[94].veinsmobility 	minSpeed 	0.25159548683302
scalar RSUExampleScenario.node[94].veinsmobility 	maxSpeed 	13.999606517332
scalar RSUExampleScenario.node[94].veinsmobility 	totalDistance 	489.21255149851
scalar RSUExampleScenario.node[94].veinsmobility 	totalCO2Emission 	149.59232638439
scalar RSUExampleScenario.node[95].appl 	#receivedMessages 	0
scalar RSUExampleScenario.node[95].nic.phy80211p 	busyTime 	0
scalar RSUExampleScenario.node[95].nic.mac1609_4 	ReceivedUnicastPackets 	0
scalar RSUExampleScenario.node[95].nic.mac1609_4 	ReceivedBroadcasts 	0
scalar RSUExampleScenario.node[95].nic.mac1609_4 	SentPackets 	0
scalar RSUExampleScenario.node[95].nic.mac1609_4 	SNIRLostPackets 	0
scalar RSUExampleScenario.node[95].nic.mac1609_4 	RXTXLostPackets 	0
scalar RSUExampleScenario.node[95].nic.mac1609_4 	TotalLostPackets 	0
scalar RSUExampleScenario.node[95].nic.mac1609_4 	DroppedPacketsInMac 	0
scalar RSUExampleScenario.node[95].nic.mac1609_4 	TooLittleTime 	0
scalar RSUExampleScenario.node[95].nic.mac1609_4 	TimesIntoBackoff 	0
scalar RSUExampleScenario.node[95].nic.mac1609_4 	SlotsBackoff 	0
scalar RSUExampleScenario.node[95].nic.mac1609_4 	NumInternalContention 	0
scalar RSUExampleScenario.node[95].nic.mac1609_4 	totalBusyTime 	0
scalar RSUExampleScenario.node[95].veinsmobility 	startTime 	285.1
scalar RSUExampleScenario.node[95].veinsmobility 	totalTime 	43.3
scalar RSUExampleScenario.node[95].veinsmobility 	stopTime 	328.4
scalar RSUExampleScenario.node[95].veinsmobility 	minSpeed 	0.25521891888068
scalar RSUExampleScenario.node[95].veinsmobility 	maxSpeed 	13.997689453179
scalar RSUExampleScenario.node[95].veinsmobility 	totalDistance 	446.25901210192
scalar RSUExampleScenario.node[95].veinsmobility 	totalCO2Emission 	141.94833268955
scalar RSUExampleScenario.node[96].appl 	#receivedMessages 	0
scalar RSUExampleScenario.node[96].nic.phy80211p 	busyTime 	0
scalar RSUExampleScenario.node[96].nic.mac1609_4 	ReceivedUnicastPackets 	0
scalar RSUExampleScenario.node[96].nic.mac1609_4 	ReceivedBroadcasts 	0
scalar RSUExampleScenario.node[96].nic.mac1609_4 	SentPackets 	0
scalar RSUExampleScenario.node[96].nic.mac1609_4 	SNIRLostPackets 	0
scalar RSUExampleScenario.node[96].nic.mac1609_4 	RXTXLostPackets 	0
scalar RSUExampleScenario.node[96].nic.mac1609_4 	TotalLostPackets 	0
scalar RSUExampleScenario.node[96].nic.mac1609_4 	DroppedPacketsInMac 	0
scalar RSUExampleScenario.node[96].nic.mac1609_4 	TooLittleTime 	0
scalar RSUExampleScenario.node[96].nic.mac1609_4 	TimesIntoBackoff 	0
scalar RSUExampleScenario.node[96].nic.mac1609_4 	SlotsBackoff 	0
scalar RSUExampleScenario.node[96].nic.mac1609_4 	NumInternalContention 	0
scalar RSUExampleScenario.node[96].nic.mac1609_4 	totalBusyTime 	0
scalar RSUExampleScenario.node[96].veinsmobility 	startTime 	288.1
scalar RSUExampleScenario.node[96].veinsmobility 	totalTime 	40.3
scalar RSUExampleScenario.node[96].veinsmobility 	stopTime 	328.4
scalar RSUExampleScenario.node[96].veinsmobility 	minSpeed 	0.2525484529268
scalar RSUExampleScenario.node[96].veinsmobility 	maxSpeed 	13.999118159094
scalar RSUExampleScenario.node[96].veinsmobility 	totalDistance 	404.47668276574
scalar RSUExampleScenario.node[96].veinsmobility 	totalCO2Emission 	133.98241887714
scalar RSUExampleScenario.node[97].appl 	#receivedMessages 	0
scalar RSUExampleScenario.node[97].nic.phy80211p 	busyTime 	0
scalar RSUExampleScenario.node[97].nic.mac1609_4 	ReceivedUnicastPackets 	0
scalar RSUExampleScenario.node[97].nic.mac1609_4 	ReceivedBroadcasts 	0
scalar RSUExampleScenario.node[97].nic.mac1609_4 	SentPackets 	0
scalar RSUExampleScenario.node[97].nic.mac1609_4 	SNIRLostPackets 	0
scalar RSUExampleScenario.node[97].nic.mac1609_4 	RXTXLostPackets 	0
scalar RSUExampleScenario.node[97].nic.mac1609_4 	TotalLostPackets 	0
scalar RSUExampleScenario.node[97].nic.mac1609_4 	DroppedPacketsInMac 	0
scalar RSUExampleScenario.node[97].nic.mac1609_4 	TooLittleTime 	0
scalar RSUExampleScenario.node[97].nic.mac1609_4 	TimesIntoBackoff 	0
scalar RSUExampleScenario.node[97].nic.mac1609_4 	SlotsBackoff 	0
scalar RSUExampleScenario.node[97].nic.mac1609_4 	NumInternalContention 	0
scalar RSUExampleScenario.node[97].nic.mac1609_4 	totalBusyTime 	0
scalar RSUExampleScenario.node[97].veinsmobility 	startTime 	291.1
scalar RSUExampleScenario.node[97].veinsmobility 	totalTime 	37.3
scalar RSUExampleScenario.node[97].veinsmobility 	stopTime 	328.4
scalar RSUExampleScenario.node[97].veinsmobility 	minSpeed 	0.25860221684095
scalar RSUExampleScenario.node[97].veinsmobility 	maxSpeed 	13.998888935356
scalar RSUExampleScenario.node[97].veinsmobility 	totalDistance 	363.45667926659
scalar RSUExampleScenario.node[97].veinsmobility 	totalCO2Emission 	128.62016903201
scalar RSUExampleScenario.node[98].appl 	#receivedMessages 	0
scalar RSUExampleScenario.node[98].nic.phy80211p 	busyTime 	0
scalar RSUExampleScenario.node[98].nic.mac1609_4 	ReceivedUnicastPackets 	0
scalar RSUExampleScenario.node[98].nic.mac1609_4 	ReceivedBroadcasts 	0
scalar RSUExampleScenario.node[98].nic.mac1609_4 	SentPackets 	0
scalar RSUExampleScenario.node[98].nic.mac1609_4 	SNIRLostPackets 	0
scalar RSUExampleScenario.node[98].nic.mac1609_4 	RXTXLostPackets 	0
scalar RSUExampleScenario.node[98].nic.mac1609_4 	TotalLostPackets 	0
scalar RSUExampleScenario.node[98].nic.mac1609_4 	DroppedPacketsInMac 	0
scalar RSUExampleScenario.node[98].nic.mac1609_4 	TooLittleTime 	0
scalar RSUExampleScenario.node[98].nic.mac1609_4 	TimesIntoBackoff 	0
scalar RSUExampleScenario.node[98].nic.mac1609_4 	SlotsBackoff 	0
scalar RSUExampleScenario.node[98].nic.mac1609_4 	NumInternalContention 	0
scalar RSUExampleScenario.node[98].nic.mac1609_4 	totalBusyTime 	0
scalar RSUExampleScenario.node[98].veinsmobility 	startTime 	294.1
scalar RSUExampleScenario.node[98].veinsmobility 	totalTime 	34.3
scalar RSUExampleScenario.node[98].veinsmobility 	stopTime 	328.4
scalar RSUExampleScenario.node[98].veinsmobility 	minSpeed 	0.25930783841736
scalar RSUExampleScenario.node[98].veinsmobility 	maxSpeed 	13.996393352088
scalar RSUExampleScenario.node[98].veinsmobility 	totalDistance 	320.18475440673
scalar RSUExampleScenario.node[98].veinsmobility 	totalCO2Emission 	120.95998477229
scalar RSUExampleScenario.node[99].appl 	#receivedMessages 	0
scalar RSUExampleScenario.node[99].nic.phy80211p 	busyTime 	0
scalar RSUExampleScenario.node[99].nic.mac1609_4 	ReceivedUnicastPackets 	0
scalar RSUExampleScenario.node[99].nic.mac1609_4 	ReceivedBroadcasts 	0
scalar RSUExampleScenario.node[99].nic.mac1609_4 	SentPackets 	0
scalar RSUExampleScenario.node[99].nic.mac1609_4 	SNIRLostPackets 	0
scalar RSUExampleScenario.node[99].nic.mac1609_4 	RXTXLostPackets 	0
scalar RSUExampleScenario.node[99].nic.mac1609_4 	TotalLostPackets 	0
scalar RSUExampleScenario.node[99].nic.mac1609_4 	DroppedPacketsInMac 	0
scalar RSUExampleScenario.node[99].nic.mac1609_4 	TooLittleTime 	0
scalar RSUExampleScenario.node[99].nic.mac1609_4 	TimesIntoBackoff 	0
scalar RSUExampleScenario.node[99].nic.mac1609_4 	SlotsBackoff 	0
scalar RSUExampleScenario.node[99].nic.mac1609_4 	NumInternalContention 	0
scalar RSUExampleScenario.node[99].nic.mac1609_4 	totalBusyTime 	0
scalar RSUExampleScenario.node[99].veinsmobility 	startTime 	297.1
scalar RSUExampleScenario.node[99].veinsmobility 	totalTime 	31.3
scalar RSUExampleScenario.node[99].veinsmobility 	stopTime 	328.4
scalar RSUExampleScenario.node[99].veinsmobility 	minSpeed 	0.25044550914853
scalar RSUExampleScenario.node[99].veinsmobility 	maxSpeed 	13.994960475487
scalar RSUExampleScenario.node[99].veinsmobility 	totalDistance 	281.81036389651
scalar RSUExampleScenario.node[99].veinsmobility 	totalCO2Emission 	113.91359200807
scalar RSUExampleScenario.rsu[0].appl 	#receivedMessages 	0
scalar RSUExampleScenario.rsu[0].nic.phy80211p 	busyTime 	1.5347137509135e-05
scalar RSUExampleScenario.rsu[0].nic.mac1609_4 	ReceivedUnicastPackets 	0
scalar RSUExampleScenario.rsu[0].nic.mac1609_4 	ReceivedBroadcasts 	40
scalar RSUExampleScenario.rsu[0].nic.mac1609_4 	SentPackets 	1
scalar RSUExampleScenario.rsu[0].nic.mac1609_4 	SNIRLostPackets 	2
scalar RSUExampleScenario.rsu[0].nic.mac1609_4 	RXTXLostPackets 	0
scalar RSUExampleScenario.rsu[0].nic.mac1609_4 	TotalLostPackets 	2
scalar RSUExampleScenario.rsu[0].nic.mac1609_4 	DroppedPacketsInMac 	0
scalar RSUExampleScenario.rsu[0].nic.mac1609_4 	TooLittleTime 	0
scalar RSUExampleScenario.rsu[0].nic.mac1609_4 	TimesIntoBackoff 	1
scalar RSUExampleScenario.rsu[0].nic.mac1609_4 	SlotsBackoff 	3
scalar RSUExampleScenario.rsu[0].nic.mac1609_4 	NumInternalContention 	0
scalar RSUExampleScenario.rsu[0].nic.mac1609_4 	totalBusyTime 	0.005040999958
